@<TRIPOS>MOLECULE
*****
 43 47 0 0 0
SMALL
GASTEIGER

@<TRIPOS>ATOM
      1 C           1.1016    0.1413    0.1409 C.3     1  UNL1       -0.0397
      2 C           2.5975    0.0904    0.0365 C.ar    1  UNL1       -0.0504
      3 C           3.3941    1.0904    0.6035 C.ar    1  UNL1       -0.0582
      4 C           4.7847    1.0689    0.4430 C.ar    1  UNL1       -0.0509
      5 C           5.4046    0.0482   -0.2903 C.ar    1  UNL1        0.0173
      6 C           4.6064   -0.9773   -0.8136 C.ar    1  UNL1       -0.0509
      7 C           3.2160   -0.9535   -0.6599 C.ar    1  UNL1       -0.0582
      8 C           6.8476    0.0450   -0.5456 C.ar    1  UNL1        0.1393
      9 N           7.6100   -1.0184   -0.7335 N.ar    1  UNL1       -0.2277
     10 C           8.8667   -0.5421   -1.0096 C.ar    1  UNL1        0.0895
     11 C           8.8862    0.8449   -1.0096 C.ar    1  UNL1        0.0671
     12 N           7.5959    1.1932   -0.7024 N.ar    1  UNL1       -0.3379
     13 C          10.0329    1.5992   -1.2902 C.ar    1  UNL1       -0.0256
     14 C          11.2233    0.8979   -1.5602 C.ar    1  UNL1        0.0193
     15 C          11.2154   -0.5088   -1.5632 C.ar    1  UNL1       -0.0490
     16 C          10.0484   -1.2393   -1.2903 C.ar    1  UNL1       -0.0336
     17 C          12.4568    1.6476   -1.8372 C.ar    1  UNL1        0.1393
     18 N          12.5530    2.8542   -2.3671 N.ar    1  UNL1       -0.2277
     19 C          13.8990    3.1349   -2.4367 C.ar    1  UNL1        0.0896
     20 C          14.6485    2.0908   -1.9147 C.ar    1  UNL1        0.0682
     21 N          13.7127    1.1679   -1.5317 N.ar    1  UNL1       -0.3378
     22 C          16.0438    2.1081   -1.8314 C.ar    1  UNL1       -0.0156
     23 C          16.7099    3.2261   -2.3518 C.ar    1  UNL1        0.0266
     24 C          15.9700    4.3094   -2.8418 C.ar    1  UNL1       -0.0389
     25 C          14.5664    4.2719   -2.9126 C.ar    1  UNL1       -0.0325
     26 N          18.0948    3.3531   -2.1655 N.pl3   1  UNL1       -0.3579
     27 H           0.7704    0.9791    0.7634 H       1  UNL1        0.0278
     28 H           0.7160   -0.7809    0.5865 H       1  UNL1        0.0278
     29 H           0.6633    0.2707   -0.8545 H       1  UNL1        0.0278
     30 H           2.9380    1.9001    1.1692 H       1  UNL1        0.0620
     31 H           5.3705    1.8575    0.9071 H       1  UNL1        0.0625
     32 H           5.0674   -1.7927   -1.3687 H       1  UNL1        0.0625
     33 H           2.6195   -1.7495   -1.1005 H       1  UNL1        0.0620
     34 H           7.2358    2.1339   -0.6548 H       1  UNL1        0.1674
     35 H          10.0123    2.6857   -1.2952 H       1  UNL1        0.0646
     36 H          12.1150   -1.0696   -1.8050 H       1  UNL1        0.0625
     37 H          10.0476   -2.3240   -1.3042 H       1  UNL1        0.0640
     38 H          13.9073    0.2878   -1.0806 H       1  UNL1        0.1674
     39 H          16.5898    1.2873   -1.3794 H       1  UNL1        0.0657
     40 H          16.4821    5.2081   -3.1776 H       1  UNL1        0.0637
     41 H          14.0049    5.1105   -3.3089 H       1  UNL1        0.0640
     42 H          18.5867    2.4669   -2.1122 H       1  UNL1        0.1423
     43 H          18.5384    4.0020   -2.8081 H       1  UNL1        0.1423
@<TRIPOS>BOND
     1     1     2    1
     2     2     3   ar
     3     3     4   ar
     4     4     5   ar
     5     5     6   ar
     6     6     7   ar
     7     2     7   ar
     8     5     8    1
     9     8     9   ar
    10     9    10   ar
    11    10    11   ar
    12    11    12   ar
    13     8    12   ar
    14    11    13   ar
    15    13    14   ar
    16    14    15   ar
    17    15    16   ar
    18    10    16   ar
    19    14    17    1
    20    17    18   ar
    21    18    19   ar
    22    19    20   ar
    23    20    21   ar
    24    17    21   ar
    25    20    22   ar
    26    22    23   ar
    27    23    24   ar
    28    24    25   ar
    29    19    25   ar
    30    23    26    1
    31     1    27    1
    32     1    28    1
    33     1    29    1
    34     3    30    1
    35     4    31    1
    36     6    32    1
    37     7    33    1
    38    12    34    1
    39    13    35    1
    40    15    36    1
    41    16    37    1
    42    21    38    1
    43    22    39    1
    44    24    40    1
    45    25    41    1
    46    26    42    1
    47    26    43    1
