@<TRIPOS>MOLECULE
*****
 27 29 0 0 0
SMALL
GASTEIGER

@<TRIPOS>ATOM
      1 C           1.0256   -0.1060   -0.0605 C.3     1  UNL1       -0.0370
      2 C           2.5326   -0.0001   -0.0652 C.ar    1  UNL1       -0.0138
      3 C           3.2216    1.2473   -0.0618 C.ar    1  UNL1        0.0071
      4 C           2.5989    2.5234   -0.0299 C.ar    1  UNL1       -0.0315
      5 C           3.3296    3.7144   -0.0636 C.ar    1  UNL1        0.0252
      6 C           4.7145    3.6344   -0.0313 C.ar    1  UNL1       -0.0390
      7 C           5.3470    2.3893   -0.0615 C.ar    1  UNL1       -0.0340
      8 C           4.6304    1.2020   -0.0789 C.ar    1  UNL1        0.0721
      9 N           5.3242    0.0572   -0.0924 N.ar    1  UNL1       -0.2451
     10 C           4.6524   -1.1062   -0.0819 C.ar    1  UNL1        0.0901
     11 C           3.2490   -1.2052   -0.0709 C.ar    1  UNL1        0.0926
     12 N           2.6075   -2.4005   -0.0623 N.ar    1  UNL1       -0.2532
     13 C           3.3488   -3.5268   -0.0568 C.ar    1  UNL1        0.0284
     14 C           4.7261   -3.5252   -0.0623 C.ar    1  UNL1       -0.0415
     15 C           5.3706   -2.2923   -0.0767 C.ar    1  UNL1       -0.0328
     16 N           2.6859    4.9428    0.1114 N.pl3   1  UNL1       -0.3579
     17 H           0.5111    0.8548   -0.0748 H       1  UNL1        0.0278
     18 H           0.6909   -0.6341    0.8391 H       1  UNL1        0.0278
     19 H           0.6882   -0.6545   -0.9470 H       1  UNL1        0.0278
     20 H           1.5184    2.6047    0.0281 H       1  UNL1        0.0643
     21 H           5.3204    4.5347    0.0209 H       1  UNL1        0.0637
     22 H           6.4339    2.3472   -0.0526 H       1  UNL1        0.0639
     23 H           2.7847   -4.4550   -0.0461 H       1  UNL1        0.0830
     24 H           5.2872   -4.4523   -0.0548 H       1  UNL1        0.0633
     25 H           6.4568   -2.2519   -0.0806 H       1  UNL1        0.0640
     26 H           1.7249    4.9610   -0.2157 H       1  UNL1        0.1423
     27 H           3.2187    5.7420   -0.2178 H       1  UNL1        0.1423
@<TRIPOS>BOND
     1     1     2    1
     2     2     3   ar
     3     3     4   ar
     4     4     5   ar
     5     5     6   ar
     6     6     7   ar
     7     7     8   ar
     8     3     8   ar
     9     8     9   ar
    10     9    10   ar
    11    10    11   ar
    12     2    11   ar
    13    11    12   ar
    14    12    13   ar
    15    13    14   ar
    16    14    15   ar
    17    10    15   ar
    18     5    16    1
    19     1    17    1
    20     1    18    1
    21     1    19    1
    22     4    20    1
    23     6    21    1
    24     7    22    1
    25    13    23    1
    26    14    24    1
    27    15    25    1
    28    16    26    1
    29    16    27    1
