@<TRIPOS>MOLECULE
/storage/saveena/protacpilot/work/protac_design/PDS_(Pyridostatin)/docking/mol2_for_p4ward/receptor_ligand.pdb
 30 34 0 0 0
SMALL
GASTEIGER

@<TRIPOS>ATOM
      1  C         -3.1240   14.3620    7.5900 C.ar    1  UNL1        0.1405
      2  N         -2.7590   15.0770    6.4670 N.ar    1  UNL1       -0.3373
      3  H         -3.3550   15.7170    5.9680 H       1  UNL1        0.1674
      4  C         -1.4860   14.7190    6.1060 C.ar    1  UNL1        0.0757
      5  C         -0.6530   15.1110    5.0500 C.ar    1  UNL1        0.0215
      6  C          0.6300   14.5350    4.9840 C.ar    1  UNL1        0.0355
      7  C          1.0150   13.5870    5.9480 C.ar    1  UNL1        0.0046
      8  C          0.1550   13.2040    6.9900 C.ar    1  UNL1        0.0207
      9  C         -1.1170   13.7850    7.0630 C.ar    1  UNL1        0.0984
     10  N         -2.1330   13.5700    7.9600 N.ar    1  UNL1       -0.2270
     11  C          1.5470   14.9320    3.9060 C.ar    1  UNL1        0.1406
     12  N          2.9160   14.9330    4.0440 N.ar    1  UNL1       -0.3373
     13  H          3.4190   14.6880    4.8840 H       1  UNL1        0.1674
     14  C          3.4840   15.3460    2.8680 C.ar    1  UNL1        0.0768
     15  C          4.8150   15.5280    2.4760 C.ar    1  UNL1        0.0326
     16  C          5.0490   15.9500    1.1610 C.ar    1  UNL1        0.0431
     17  C          3.9670   16.2600    0.3260 C.ar    1  UNL1        0.0157
     18  C          2.6380   16.0720    0.7430 C.ar    1  UNL1        0.0219
     19  C          2.4010   15.6040    2.0430 C.ar    1  UNL1        0.0985
     20  N          1.2160   15.3610    2.7000 N.ar    1  UNL1       -0.2270
     21  N          6.3530   16.2830    0.7650 N.pl3   1  UNL1       -0.3570
     22  H          6.4920   16.2840   -0.2400 H       1  UNL1        0.1424
     23  H          7.0780   15.7670    1.2530 H       1  UNL1        0.1424
     24  C         -8.4980   14.4830    9.7370 C.3     1  UNL1        0.0310
     25  C         -7.0800   14.4890    9.2470 C.ar    1  UNL1       -0.0218
     26  C         -6.3090   13.3230    9.3160 C.ar    1  UNL1       -0.0042
     27  C         -5.0070   13.3030    8.8060 C.ar    1  UNL1        0.0027
     28  C         -4.4530   14.4400    8.2020 C.ar    1  UNL1        0.0339
     29  C         -5.2120   15.6170    8.1760 C.ar    1  UNL1        0.0027
     30  C         -6.5130   15.6420    8.6930 C.ar    1  UNL1       -0.0042
@<TRIPOS>BOND
     1     1     2   ar
     2     1    10   ar
     3     1    28    1
     4     2     3    1
     5     2     4   ar
     6     4     5   ar
     7     4     9   ar
     8     5     6   ar
     9     6    11    1
    10     6     7   ar
    11     7     8   ar
    12     8     9   ar
    13     9    10   ar
    14    11    20   ar
    15    11    12   ar
    16    12    14   ar
    17    12    13    1
    18    14    19   ar
    19    14    15   ar
    20    15    16   ar
    21    16    17   ar
    22    16    21    1
    23    17    18   ar
    24    18    19   ar
    25    19    20   ar
    26    21    22    1
    27    21    23    1
    28    24    25    1
    29    25    30   ar
    30    25    26   ar
    31    26    27   ar
    32    27    28   ar
    33    28    29   ar
    34    29    30   ar
