@<TRIPOS>MOLECULE
*****
 43 47 0 0 0
SMALL
GASTEIGER

@<TRIPOS>ATOM
      1 C           1.1382    0.2300    0.1628 C.3     1  UNL1       -0.0397
      2 C           2.6344    0.1736    0.0621 C.ar    1  UNL1       -0.0504
      3 C           3.4329    1.1704    0.6317 C.ar    1  UNL1       -0.0582
      4 C           4.8236    1.1455    0.4723 C.ar    1  UNL1       -0.0509
      5 C           5.4421    0.1247   -0.2632 C.ar    1  UNL1        0.0173
      6 C           4.6415   -0.8987   -0.7865 C.ar    1  UNL1       -0.0509
      7 C           3.2506   -0.8715   -0.6343 C.ar    1  UNL1       -0.0582
      8 C           6.8852    0.1215   -0.5202 C.ar    1  UNL1        0.1393
      9 N           7.6475   -0.9413   -0.7094 N.ar    1  UNL1       -0.2277
     10 C           8.9044   -0.4647   -0.9865 C.ar    1  UNL1        0.0895
     11 C           8.9234    0.9219   -0.9855 C.ar    1  UNL1        0.0671
     12 N           7.6325    1.2697   -0.6782 N.ar    1  UNL1       -0.3379
     13 C          10.0692    1.6774   -1.2657 C.ar    1  UNL1       -0.0256
     14 C          11.2600    0.9773   -1.5377 C.ar    1  UNL1        0.0193
     15 C          11.2527   -0.4295   -1.5422 C.ar    1  UNL1       -0.0490
     16 C          10.0856   -1.1614   -1.2689 C.ar    1  UNL1       -0.0336
     17 C          12.4926    1.7275   -1.8164 C.ar    1  UNL1        0.1393
     18 N          12.5850    2.9362   -2.3449 N.ar    1  UNL1       -0.2277
     19 C          13.9302    3.2194   -2.4179 C.ar    1  UNL1        0.0896
     20 C          14.6821    2.1768   -1.8994 C.ar    1  UNL1        0.0682
     21 N          13.7493    1.2508   -1.5157 N.ar    1  UNL1       -0.3378
     22 C          16.0786    2.1961   -1.8207 C.ar    1  UNL1       -0.0156
     23 C          16.7404    3.3175   -2.3405 C.ar    1  UNL1        0.0266
     24 C          15.9965    4.3999   -2.8269 C.ar    1  UNL1       -0.0389
     25 C          14.5933    4.3590   -2.8937 C.ar    1  UNL1       -0.0325
     26 N          18.1251    3.4482   -2.1567 N.pl3   1  UNL1       -0.3579
     27 H           0.8083    1.0687    0.7850 H       1  UNL1        0.0278
     28 H           0.7475   -0.6909    0.6067 H       1  UNL1        0.0278
     29 H           0.7031    0.3620   -0.8336 H       1  UNL1        0.0278
     30 H           2.9785    1.9804    1.1980 H       1  UNL1        0.0620
     31 H           5.4110    1.9322    0.9377 H       1  UNL1        0.0625
     32 H           5.1008   -1.7149   -1.3421 H       1  UNL1        0.0625
     33 H           2.6527   -1.6655   -1.0758 H       1  UNL1        0.0620
     34 H           7.2726    2.2095   -0.6267 H       1  UNL1        0.1674
     35 H          10.0480    2.7638   -1.2688 H       1  UNL1        0.0646
     36 H          12.1522   -0.9895   -1.7855 H       1  UNL1        0.0625
     37 H          10.0855   -2.2457   -1.2847 H       1  UNL1        0.0640
     38 H          13.9468    0.3701   -1.0658 H       1  UNL1        0.1674
     39 H          16.6278    1.3760   -1.3723 H       1  UNL1        0.0657
     40 H          16.5056    5.3001   -3.1629 H       1  UNL1        0.0637
     41 H          14.0285    5.1962   -3.2874 H       1  UNL1        0.0640
     42 H          18.6206    2.5639   -2.1054 H       1  UNL1        0.1423
     43 H          18.5659    4.0998   -2.7984 H       1  UNL1        0.1423
@<TRIPOS>BOND
     1     1     2    1
     2     2     3   ar
     3     3     4   ar
     4     4     5   ar
     5     5     6   ar
     6     6     7   ar
     7     2     7   ar
     8     5     8    1
     9     8     9   ar
    10     9    10   ar
    11    10    11   ar
    12    11    12   ar
    13     8    12   ar
    14    11    13   ar
    15    13    14   ar
    16    14    15   ar
    17    15    16   ar
    18    10    16   ar
    19    14    17    1
    20    17    18   ar
    21    18    19   ar
    22    19    20   ar
    23    20    21   ar
    24    17    21   ar
    25    20    22   ar
    26    22    23   ar
    27    23    24   ar
    28    24    25   ar
    29    19    25   ar
    30    23    26    1
    31     1    27    1
    32     1    28    1
    33     1    29    1
    34     3    30    1
    35     4    31    1
    36     6    32    1
    37     7    33    1
    38    12    34    1
    39    13    35    1
    40    15    36    1
    41    16    37    1
    42    21    38    1
    43    22    39    1
    44    24    40    1
    45    25    41    1
    46    26    42    1
    47    26    43    1
