@<TRIPOS>MOLECULE
*****
 34 34 0 0 0
SMALL
GASTEIGER

@<TRIPOS>ATOM
      1 C           1.0680   -0.7821   -0.0744 C.3     0  UNK0       -0.0397
      2 C           2.5337   -0.4988   -0.2222 C.ar    0  UNK0       -0.0504
      3 C           2.9932    0.4211   -1.1706 C.ar    0  UNK0       -0.0581
      4 C           4.3629    0.6030   -1.3684 C.ar    0  UNK0       -0.0494
      5 C           5.2909   -0.1375   -0.6246 C.ar    0  UNK0        0.0367
      6 C           4.8335   -1.0099    0.3703 C.ar    0  UNK0       -0.0494
      7 C           3.4617   -1.1927    0.5640 C.ar    0  UNK0       -0.0581
      8 C           6.7312    0.0085   -0.9651 C.2     0  UNK0        0.2447
      9 O           7.1346    0.9982   -1.5672 O.2     0  UNK0       -0.2702
     10 N           7.5569   -1.0310   -0.6132 N.am    1  GLU1       -0.2983
     11 CA          8.9666   -1.0715   -0.9961 C.3     1  GLU1        0.1209
     12 CB          9.7704   -0.0043   -0.2323 C.3     1  GLU1       -0.0140
     13 CG         11.2620    0.0133   -0.5424 C.3     1  GLU1        0.0470
     14 CD         11.4878    0.2241   -2.0087 C.2     1  GLU1        0.3048
     15 OE1        11.4240   -0.6905   -2.8186 O.2     1  GLU1       -0.2510
     16 OE2        11.6597    1.5144   -2.3623 O.3     1  GLU1       -0.4806
     17 C           9.4728   -2.4816   -0.6706 C.2     1  GLU1        0.3253
     18 O           9.2501   -3.0472    0.3933 O.2     1  GLU1       -0.2489
     19 OXT        10.1672   -3.0725   -1.6674 O.3     1  GLU1       -0.4793
     20 H           0.4659   -0.1178   -0.7026 H       0  UNK0        0.0278
     21 H           0.7518   -0.6447    0.9637 H       0  UNK0        0.0278
     22 H           0.8606   -1.8128   -0.3819 H       0  UNK0        0.0278
     23 H           2.2913    0.9878   -1.7781 H       0  UNK0        0.0620
     24 H           4.7055    1.3066   -2.1260 H       0  UNK0        0.0625
     25 H           5.5226   -1.5571    1.0064 H       0  UNK0        0.0625
     26 H           3.1198   -1.8930    1.3237 H       0  UNK0        0.0620
     27 H           7.1630   -1.8899   -0.2427 H       1  GLU1        0.1498
     28 HA          8.9936   -0.9038   -2.0781 H       1  GLU1        0.0614
     29 HB1         9.6381   -0.1473    0.8476 H       1  GLU1        0.0294
     30 HB2         9.3641    0.9895   -0.4588 H       1  GLU1        0.0294
     31 HG1        11.7461   -0.9254   -0.2548 H       1  GLU1        0.0378
     32 HG2        11.7637    0.8014    0.0304 H       1  GLU1        0.0378
     33 HE2        11.5943    2.1547   -1.6250 H       1  GLU1        0.2951
     34 HXT        10.3246   -2.5089   -2.4591 H       1  GLU1        0.2951
@<TRIPOS>BOND
     1     1     2    1
     2     2     3   ar
     3     3     4   ar
     4     4     5   ar
     5     5     6   ar
     6     6     7   ar
     7     2     7   ar
     8     5     8    1
     9     8     9    2
    10     8    10   am
    11    10    11    1
    12    11    12    1
    13    12    13    1
    14    13    14    1
    15    14    15    2
    16    14    16    1
    17    11    17    1
    18    17    18    2
    19    17    19    1
    20     1    20    1
    21     1    21    1
    22     1    22    1
    23     3    23    1
    24     4    24    1
    25     6    25    1
    26     7    26    1
    27    10    27    1
    28    11    28    1
    29    12    29    1
    30    12    30    1
    31    13    31    1
    32    13    32    1
    33    16    33    1
    34    19    34    1
