@<TRIPOS>MOLECULE
*****
 47 51 0 0 0
SMALL
GASTEIGER

@<TRIPOS>ATOM
      1 C           0.9060    0.1291    0.2428 C.3     1  UNL1       -0.0583
      2 C           2.3815   -0.1165    0.6097 C.3     1  UNL1       -0.0163
      3 C           2.9227   -1.4759    0.0726 C.2     1  UNL1       -0.0398
      4 C           2.1219   -2.5410   -0.1559 C.2     1  UNL1       -0.0610
      5 C           2.6542   -3.9139   -0.4354 C.3     1  UNL1        0.0635
      6 N           3.9811   -4.0135    0.1143 N.ar    1  UNL1       -0.2258
      7 C           4.6861   -5.2065    0.2917 C.ar    1  UNL1        0.3527
      8 O           4.1452   -6.3025    0.3221 O.2     1  UNL1       -0.2443
      9 N           6.0407   -4.8714    0.3618 N.ar    1  UNL1       -0.2118
     10 C           6.1770   -3.5156    0.0324 C.ar    1  UNL1        0.3533
     11 O           7.1917   -2.8377   -0.0475 O.2     1  UNL1       -0.2443
     12 N           4.8896   -3.0071   -0.1634 N.ar    1  UNL1       -0.2183
     13 C           4.4842   -1.6064   -0.0746 C.3     1  UNL1        0.1092
     14 C           5.1274   -0.8422    1.0694 C.ar    1  UNL1        0.0640
     15 C           5.6885    0.4404    0.9010 C.ar    1  UNL1        0.1259
     16 C           5.6279    1.3558    1.9508 C.ar    1  UNL1       -0.0193
     17 C           4.7148    1.1009    2.9624 C.ar    1  UNL1       -0.0516
     18 C           3.9511   -0.0497    2.8381 C.ar    1  UNL1       -0.0048
     19 C           4.6349   -1.1158    2.3248 C.ar    1  UNL1        0.1290
     20 O           4.3136   -2.3669    2.7363 O.3     1  UNL1       -0.5060
     21 C           2.5389    0.1495    2.1849 C.3     1  UNL1       -0.0179
     22 O           6.1279    0.9254   -0.2950 O.3     1  UNL1       -0.5063
     23 C           7.0905   -5.7577    0.7424 C.ar    1  UNL1        0.0559
     24 C           6.8479   -7.1073    1.0486 C.ar    1  UNL1       -0.0375
     25 C           7.8671   -7.9712    1.4724 C.ar    1  UNL1       -0.0598
     26 C           9.1654   -7.4996    1.6082 C.ar    1  UNL1       -0.0616
     27 C           9.4441   -6.1701    1.3125 C.ar    1  UNL1       -0.0598
     28 C           8.4208   -5.3146    0.8810 C.ar    1  UNL1       -0.0375
     29 H           0.7078   -0.0940   -0.8121 H       1  UNL1        0.0236
     30 H           0.6412    1.1788    0.4098 H       1  UNL1        0.0236
     31 H           0.2334   -0.4812    0.8561 H       1  UNL1        0.0236
     32 H           2.9421    0.6625    0.0719 H       1  UNL1        0.0347
     33 H           1.0478   -2.4828   -0.0389 H       1  UNL1        0.0591
     34 H           2.6756   -4.1359   -1.5070 H       1  UNL1        0.0554
     35 H           2.0300   -4.6680    0.0547 H       1  UNL1        0.0554
     36 H           4.7727   -1.1614   -1.0352 H       1  UNL1        0.0645
     37 H           6.1181    2.3242    1.8875 H       1  UNL1        0.0654
     38 H           4.4523    1.8680    3.6837 H       1  UNL1        0.0623
     39 H           5.1600   -2.7772    2.9861 H       1  UNL1        0.2922
     40 H           2.2506    1.1977    2.3595 H       1  UNL1        0.0320
     41 H           1.8232   -0.4678    2.7383 H       1  UNL1        0.0320
     42 H           5.4043    0.8425   -0.9387 H       1  UNL1        0.2921
     43 H           5.8567   -7.5421    0.9770 H       1  UNL1        0.0638
     44 H           7.6361   -9.0050    1.7016 H       1  UNL1        0.0618
     45 H           9.9575   -8.1636    1.9441 H       1  UNL1        0.0618
     46 H          10.4561   -5.7904    1.4179 H       1  UNL1        0.0618
     47 H           8.7091   -4.2843    0.6829 H       1  UNL1        0.0638
@<TRIPOS>BOND
     1     1     2    1
     2     2     3    1
     3     3     4    2
     4     4     5    1
     5     5     6    1
     6     6     7   ar
     7     7     8    2
     8     7     9   ar
     9     9    10   ar
    10    10    11    2
    11    10    12   ar
    12     6    12   ar
    13    12    13    1
    14     3    13    1
    15    13    14    1
    16    14    15   ar
    17    15    16   ar
    18    16    17   ar
    19    17    18   ar
    20    18    19   ar
    21    14    19   ar
    22    19    20    1
    23    18    21    1
    24     2    21    1
    25    15    22    1
    26     9    23    1
    27    23    24   ar
    28    24    25   ar
    29    25    26   ar
    30    26    27   ar
    31    27    28   ar
    32    23    28   ar
    33     1    29    1
    34     1    30    1
    35     1    31    1
    36     2    32    1
    37     4    33    1
    38     5    34    1
    39     5    35    1
    40    13    36    1
    41    16    37    1
    42    17    38    1
    43    20    39    1
    44    21    40    1
    45    21    41    1
    46    22    42    1
    47    24    43    1
    48    25    44    1
    49    26    45    1
    50    27    46    1
    51    28    47    1
