@<TRIPOS>MOLECULE
*****
 63 68 0 0 0
SMALL
GASTEIGER

@<TRIPOS>ATOM
      1 C           3.0619    1.4921   -0.9143 C.3     1  UNL1       -0.0524
      2 C           2.5794    0.1027   -0.5107 C.3     1  UNL1       -0.0038
      3 N           3.0419   -0.9747   -1.4003 N.3     1  UNL1       -0.2996
      4 C           4.5177   -1.0924   -1.4653 C.3     1  UNL1        0.0147
      5 C           5.1945   -1.5502   -0.1521 C.3     1  UNL1        0.0250
      6 N           4.6031   -2.8209    0.3048 N.pl3   1  UNL1       -0.3274
      7 C           3.1315   -2.8269    0.3725 C.3     1  UNL1        0.0250
      8 C           2.5151   -2.2900   -0.9457 C.3     1  UNL1        0.0147
      9 C           5.3895   -3.9209    0.5973 C.ar    1  UNL1        0.0318
     10 C           4.9103   -5.2360    0.4572 C.ar    1  UNL1       -0.0152
     11 C           5.7659   -6.3159    0.7240 C.ar    1  UNL1        0.0681
     12 C           7.0855   -6.1647    1.1236 C.ar    1  UNL1        0.0275
     13 C           7.5669   -4.8575    1.3001 C.ar    1  UNL1       -0.0487
     14 C           6.7157   -3.7707    1.0364 C.ar    1  UNL1       -0.0399
     15 C           7.5984   -7.4984    1.2546 C.ar    1  UNL1        0.1003
     16 N           6.6363   -8.4023    0.9929 N.ar    1  UNL1       -0.1727
     17 N           5.5649   -7.6648    0.6647 N.ar    1  UNL1       -0.2763
     18 C           8.9544   -7.9308    1.6256 C.ar    1  UNL1        0.0048
     19 C           9.1353   -9.1444    2.3197 C.ar    1  UNL1       -0.0270
     20 C          10.4440   -9.5058    2.6611 C.ar    1  UNL1        0.0671
     21 C          11.5513   -8.7320    2.3516 C.ar    1  UNL1        0.0895
     22 C          11.3746   -7.5344    1.6497 C.ar    1  UNL1       -0.0336
     23 C          10.0743   -7.1554    1.2815 C.ar    1  UNL1       -0.0504
     24 N          12.7032   -9.3231    2.8013 N.ar    1  UNL1       -0.2277
     25 C          12.3419  -10.4665    3.3599 C.ar    1  UNL1        0.1394
     26 N          10.9696  -10.5952    3.3079 N.ar    1  UNL1       -0.3379
     27 C          13.2634  -11.4721    3.9092 C.ar    1  UNL1        0.0210
     28 C          14.6506  -11.2264    3.8439 C.ar    1  UNL1       -0.0057
     29 C          15.5719  -12.1801    4.2804 C.ar    1  UNL1        0.1619
     30 C          15.0932  -13.3828    4.8060 C.ar    1  UNL1        0.1585
     31 C          13.7331  -13.6392    4.9102 C.ar    1  UNL1       -0.0159
     32 C          12.8187  -12.6842    4.4585 C.ar    1  UNL1       -0.0474
     33 O          15.9678  -14.3497    5.2222 O.3     1  UNL1       -0.5033
     34 O          16.9381  -12.0700    4.2365 O.3     1  UNL1       -0.4914
     35 C          17.4629  -10.8596    3.7009 C.3     1  UNL1        0.0790
     36 H           2.6095    2.2441   -0.2593 H       1  UNL1        0.0242
     37 H           2.7806    1.7264   -1.9453 H       1  UNL1        0.0242
     38 H           4.1469    1.5938   -0.8142 H       1  UNL1        0.0242
     39 H           1.4827    0.1214   -0.5360 H       1  UNL1        0.0424
     40 H           2.8653   -0.0698    0.5322 H       1  UNL1        0.0424
     41 H           4.9712   -0.1588   -1.8137 H       1  UNL1        0.0442
     42 H           4.7591   -1.8268   -2.2471 H       1  UNL1        0.0442
     43 H           5.0749   -0.7922    0.6310 H       1  UNL1        0.0476
     44 H           6.2660   -1.6305   -0.3613 H       1  UNL1        0.0476
     45 H           2.8218   -2.1939    1.2128 H       1  UNL1        0.0476
     46 H           2.7079   -3.8127    0.5837 H       1  UNL1        0.0476
     47 H           1.4235   -2.2423   -0.8508 H       1  UNL1        0.0442
     48 H           2.7100   -3.0227   -1.7408 H       1  UNL1        0.0442
     49 H           3.9056   -5.4346    0.1021 H       1  UNL1        0.0657
     50 H           8.5782   -4.6674    1.6442 H       1  UNL1        0.0625
     51 H           7.1252   -2.7790    1.2129 H       1  UNL1        0.0636
     52 H           4.7107   -8.1479    0.4114 H       1  UNL1        0.1889
     53 H           8.2888   -9.7755    2.5741 H       1  UNL1        0.0645
     54 H          12.2322   -6.9267    1.3845 H       1  UNL1        0.0640
     55 H           9.9611   -6.2466    0.6970 H       1  UNL1        0.0625
     56 H          10.4365  -11.3769    3.6544 H       1  UNL1        0.1674
     57 H          14.9809  -10.2782    3.4282 H       1  UNL1        0.0662
     58 H          13.3896  -14.5828    5.3262 H       1  UNL1        0.0655
     59 H          11.7625  -12.9202    4.5412 H       1  UNL1        0.0626
     60 H          16.8548  -13.9851    5.0324 H       1  UNL1        0.2923
     61 H          18.5532  -10.9515    3.6773 H       1  UNL1        0.0660
     62 H          17.2124  -10.0077    4.3414 H       1  UNL1        0.0660
     63 H          17.1242  -10.6976    2.6725 H       1  UNL1        0.0660
@<TRIPOS>BOND
     1     1     2    1
     2     2     3    1
     3     3     4    1
     4     4     5    1
     5     5     6    1
     6     6     7    1
     7     7     8    1
     8     3     8    1
     9     6     9    1
    10     9    10   ar
    11    10    11   ar
    12    11    12   ar
    13    12    13   ar
    14    13    14   ar
    15     9    14   ar
    16    12    15   ar
    17    15    16   ar
    18    16    17   ar
    19    11    17   ar
    20    15    18    1
    21    18    19   ar
    22    19    20   ar
    23    20    21   ar
    24    21    22   ar
    25    22    23   ar
    26    18    23   ar
    27    21    24   ar
    28    24    25   ar
    29    25    26   ar
    30    20    26   ar
    31    25    27    1
    32    27    28   ar
    33    28    29   ar
    34    29    30   ar
    35    30    31   ar
    36    31    32   ar
    37    27    32   ar
    38    30    33    1
    39    29    34    1
    40    34    35    1
    41     1    36    1
    42     1    37    1
    43     1    38    1
    44     2    39    1
    45     2    40    1
    46     4    41    1
    47     4    42    1
    48     5    43    1
    49     5    44    1
    50     7    45    1
    51     7    46    1
    52     8    47    1
    53     8    48    1
    54    10    49    1
    55    13    50    1
    56    14    51    1
    57    17    52    1
    58    19    53    1
    59    22    54    1
    60    23    55    1
    61    26    56    1
    62    28    57    1
    63    31    58    1
    64    32    59    1
    65    33    60    1
    66    35    61    1
    67    35    62    1
    68    35    63    1
