@<TRIPOS>MOLECULE
*****
 42 42 0 0 0
SMALL
GASTEIGER

@<TRIPOS>ATOM
      1 C           1.1822    0.0996    1.4118 C.3     1  UNL1       -0.0389
      2 C           2.4808    0.0819    0.6569 C.ar    1  UNL1       -0.0347
      3 C           3.1938    1.2911    0.5611 C.ar    1  UNL1       -0.0276
      4 C           4.4189    1.3204   -0.0966 C.ar    1  UNL1        0.1254
      5 N           4.9934    0.2277   -0.6618 N.ar    1  UNL1       -0.2496
      6 C           4.2904   -0.9317   -0.5571 C.ar    1  UNL1        0.0408
      7 C           3.0405   -1.0641    0.0592 C.ar    1  UNL1        0.0577
      8 C           2.4498   -2.4370    0.0507 C.2     1  UNL1        0.2458
      9 O           3.1928   -3.4117    0.0933 O.2     1  UNL1       -0.2701
     10 N           1.0831   -2.5261   -0.0806 N.am    1  UNL1       -0.3108
     11 C           0.3740   -3.7924   -0.1479 C.3     1  UNL1        0.0201
     12 C          -0.5558   -4.0115    1.0385 C.3     1  UNL1        0.0395
     13 C          -1.5840   -2.9107    1.1836 C.2     1  UNL1        0.2145
     14 O          -1.5676   -2.1205    2.1236 O.2     1  UNL1       -0.2758
     15 N          -2.5227   -2.8528    0.1816 N.am    1  UNL1       -0.3148
     16 C          -3.5405   -1.8174    0.1329 C.3     1  UNL1        0.0198
     17 C          -3.0334   -0.5020   -0.4478 C.3     1  UNL1        0.0393
     18 C          -2.6346   -0.6349   -1.9004 C.2     1  UNL1        0.2120
     19 O          -2.6448   -1.6852   -2.5320 O.2     1  UNL1       -0.2760
     20 N          -2.2127    0.5291   -2.4771 N.am    1  UNL1       -0.3293
     21 C           5.1560    2.6200   -0.2119 C.2     1  UNL1        0.2599
     22 O           4.7144    3.6691    0.2414 O.2     1  UNL1       -0.2687
     23 N           6.3564    2.5701   -0.8660 N.am    1  UNL1       -0.3241
     24 H           1.0628    1.0334    1.9726 H       1  UNL1        0.0278
     25 H           1.1417   -0.7165    2.1396 H       1  UNL1        0.0278
     26 H           0.3355    0.0402    0.7237 H       1  UNL1        0.0278
     27 H           2.8083    2.2056    1.0061 H       1  UNL1        0.0643
     28 H           4.7797   -1.7941   -1.0095 H       1  UNL1        0.0837
     29 H           0.5464   -1.6928   -0.2757 H       1  UNL1        0.1490
     30 H           1.0898   -4.6197   -0.2012 H       1  UNL1        0.0467
     31 H          -0.1872   -3.7839   -1.0876 H       1  UNL1        0.0467
     32 H           0.0193   -4.0633    1.9706 H       1  UNL1        0.0374
     33 H          -1.0829   -4.9675    0.9325 H       1  UNL1        0.0374
     34 H          -2.4030   -3.4069   -0.6603 H       1  UNL1        0.1487
     35 H          -3.9050   -1.6455    1.1520 H       1  UNL1        0.0467
     36 H          -4.3710   -2.2128   -0.4611 H       1  UNL1        0.0467
     37 H          -2.1681   -0.1352    0.1155 H       1  UNL1        0.0374
     38 H          -3.8286    0.2497   -0.3821 H       1  UNL1        0.0374
     39 H          -2.2727    1.4264   -2.0188 H       1  UNL1        0.1449
     40 H          -1.9702    0.5047   -3.4620 H       1  UNL1        0.1449
     41 H           6.6985    1.6877   -1.2300 H       1  UNL1        0.1453
     42 H           6.8952    3.4156   -0.9809 H       1  UNL1        0.1453
@<TRIPOS>BOND
     1     1     2    1
     2     2     3   ar
     3     3     4   ar
     4     4     5   ar
     5     5     6   ar
     6     6     7   ar
     7     2     7   ar
     8     7     8    1
     9     8     9    2
    10     8    10   am
    11    10    11    1
    12    11    12    1
    13    12    13    1
    14    13    14    2
    15    13    15   am
    16    15    16    1
    17    16    17    1
    18    17    18    1
    19    18    19    2
    20    18    20   am
    21     4    21    1
    22    21    22    2
    23    21    23   am
    24     1    24    1
    25     1    25    1
    26     1    26    1
    27     3    27    1
    28     6    28    1
    29    10    29    1
    30    11    30    1
    31    11    31    1
    32    12    32    1
    33    12    33    1
    34    15    34    1
    35    16    35    1
    36    16    36    1
    37    17    37    1
    38    17    38    1
    39    20    39    1
    40    20    40    1
    41    23    41    1
    42    23    42    1
