@<TRIPOS>MOLECULE
*****
 35 36 0 0 0
SMALL
GASTEIGER

@<TRIPOS>ATOM
      1 C           1.0116   -0.0077    0.7446 C.3     1  UNL1        0.0788
      2 O           2.3405    0.0558    0.2441 O.3     1  UNL1       -0.4950
      3 C           2.9817    1.2612    0.3157 C.ar    1  UNL1        0.1236
      4 C           2.4696    2.4393    0.8584 C.ar    1  UNL1        0.0221
      5 C           3.2407    3.6099    0.8343 C.ar    1  UNL1        0.1274
      6 C           4.5371    3.6273    0.2911 C.ar    1  UNL1        0.0168
      7 C           5.0344    2.4343   -0.2485 C.ar    1  UNL1       -0.0477
      8 C           4.2662    1.2657   -0.2299 C.ar    1  UNL1       -0.0192
      9 C           5.3130    4.8801    0.2150 C.2     1  UNL1       -0.0475
     10 C           6.6501    4.9507    0.3194 C.2     1  UNL1       -0.0137
     11 C           7.3469    6.2606    0.1817 C.2     1  UNL1        0.1862
     12 O           6.8107    7.2382   -0.3277 O.2     1  UNL1       -0.2873
     13 C           8.7679    6.3346    0.6191 C.ar    1  UNL1        0.0253
     14 C           9.6215    7.2272   -0.0498 C.ar    1  UNL1       -0.0057
     15 C          10.9545    7.3120    0.3365 C.ar    1  UNL1        0.1589
     16 C          11.4351    6.5316    1.3856 C.ar    1  UNL1        0.1583
     17 C          10.5969    5.6634    2.0689 C.ar    1  UNL1       -0.0159
     18 C           9.2561    5.5649    1.6881 C.ar    1  UNL1       -0.0473
     19 O          12.7455    6.6194    1.7576 O.3     1  UNL1       -0.5033
     20 O          11.8382    8.1497   -0.2863 O.3     1  UNL1       -0.5033
     21 O           2.7205    4.7667    1.3560 O.3     1  UNL1       -0.5061
     22 H           0.6182   -1.0046    0.5211 H       1  UNL1        0.0660
     23 H           0.3596    0.7208    0.2514 H       1  UNL1        0.0660
     24 H           1.0002    0.1223    1.8313 H       1  UNL1        0.0660
     25 H           1.4781    2.4648    1.2939 H       1  UNL1        0.0691
     26 H           6.0161    2.3972   -0.7129 H       1  UNL1        0.0626
     27 H           4.6704    0.3518   -0.6602 H       1  UNL1        0.0654
     28 H           4.7263    5.7874    0.0751 H       1  UNL1        0.0626
     29 H           7.2582    4.0708    0.4838 H       1  UNL1        0.0656
     30 H           9.2336    7.8359   -0.8620 H       1  UNL1        0.0662
     31 H          10.9826    5.0742    2.8963 H       1  UNL1        0.0655
     32 H           8.6042    4.9020    2.2504 H       1  UNL1        0.0626
     33 H          13.1314    7.2834    1.1515 H       1  UNL1        0.2923
     34 H          11.3599    8.6377   -0.9797 H       1  UNL1        0.2923
     35 H           1.8129    4.6058    1.6558 H       1  UNL1        0.2922
@<TRIPOS>BOND
     1     1     2    1
     2     2     3    1
     3     3     4   ar
     4     4     5   ar
     5     5     6   ar
     6     6     7   ar
     7     7     8   ar
     8     3     8   ar
     9     6     9    1
    10     9    10    2
    11    10    11    1
    12    11    12    2
    13    11    13    1
    14    13    14   ar
    15    14    15   ar
    16    15    16   ar
    17    16    17   ar
    18    17    18   ar
    19    13    18   ar
    20    16    19    1
    21    15    20    1
    22     5    21    1
    23     1    22    1
    24     1    23    1
    25     1    24    1
    26     4    25    1
    27     7    26    1
    28     8    27    1
    29     9    28    1
    30    10    29    1
    31    14    30    1
    32    17    31    1
    33    18    32    1
    34    19    33    1
    35    20    34    1
    36    21    35    1
