@<TRIPOS>MOLECULE
*****
 41 45 0 0 0
SMALL
GASTEIGER

@<TRIPOS>ATOM
      1 C           1.0383    0.2610   -0.0006 C.3     1  UNL1       -0.0397
      2 C           2.5343    0.2058   -0.1010 C.ar    1  UNL1       -0.0504
      3 C           3.3321    1.2050    0.4657 C.ar    1  UNL1       -0.0582
      4 C           4.7228    1.1803    0.3073 C.ar    1  UNL1       -0.0509
      5 C           5.3414    0.1571   -0.4235 C.ar    1  UNL1        0.0173
      6 C           4.5419   -0.8680   -0.9457 C.ar    1  UNL1       -0.0509
      7 C           3.1516   -0.8409   -0.7942 C.ar    1  UNL1       -0.0582
      8 C           6.7840    0.1513   -0.6794 C.ar    1  UNL1        0.1393
      9 N           7.5454   -0.9129   -0.8636 N.ar    1  UNL1       -0.2277
     10 C           8.8024   -0.4383   -1.1438 C.ar    1  UNL1        0.0895
     11 C           8.8224    0.9488   -1.1482 C.ar    1  UNL1        0.0671
     12 N           7.5324    1.2983   -0.8421 N.ar    1  UNL1       -0.3379
     13 C           9.9685    1.7021   -1.4312 C.ar    1  UNL1       -0.0256
     14 C          11.1577    0.9992   -1.7008 C.ar    1  UNL1        0.0193
     15 C          11.1495   -0.4074   -1.7012 C.ar    1  UNL1       -0.0490
     16 C           9.9823   -1.1374   -1.4247 C.ar    1  UNL1       -0.0336
     17 C          12.3893    1.7457   -1.9859 C.ar    1  UNL1        0.1393
     18 N          12.4791    2.9553   -2.5145 N.ar    1  UNL1       -0.2277
     19 C          13.8247    3.2285   -2.6159 C.ar    1  UNL1        0.0895
     20 C          14.5803    2.1839   -2.1036 C.ar    1  UNL1        0.0665
     21 N          13.6495    1.2650   -1.7015 N.ar    1  UNL1       -0.3379
     22 C          15.9761    2.1854   -2.0614 C.ar    1  UNL1       -0.0362
     23 C          16.6169    3.3154   -2.5814 C.ar    1  UNL1       -0.0597
     24 C          15.8867    4.3814   -3.1129 C.ar    1  UNL1       -0.0596
     25 C          14.4845    4.3526   -3.1357 C.ar    1  UNL1       -0.0342
     26 H           0.7077    1.1008    0.6196 H       1  UNL1        0.0278
     27 H           0.6489   -0.6594    0.4455 H       1  UNL1        0.0278
     28 H           0.6032    0.3900   -0.9974 H       1  UNL1        0.0278
     29 H           2.8769    2.0166    1.0292 H       1  UNL1        0.0620
     30 H           5.3098    1.9686    0.7704 H       1  UNL1        0.0625
     31 H           5.0022   -1.6853   -1.4989 H       1  UNL1        0.0625
     32 H           2.5540   -1.6364   -1.2342 H       1  UNL1        0.0620
     33 H           7.1723    2.2389   -0.7957 H       1  UNL1        0.1674
     34 H           9.9478    2.7885   -1.4402 H       1  UNL1        0.0646
     35 H          12.0477   -0.9689   -1.9451 H       1  UNL1        0.0625
     36 H           9.9809   -2.2217   -1.4378 H       1  UNL1        0.0640
     37 H          13.8483    0.3816   -1.2589 H       1  UNL1        0.1674
     38 H          16.5421    1.3563   -1.6513 H       1  UNL1        0.0639
     39 H          17.7043    3.3629   -2.5731 H       1  UNL1        0.0618
     40 H          16.4111    5.2454   -3.5146 H       1  UNL1        0.0618
     41 H          13.9150    5.1775   -3.5490 H       1  UNL1        0.0639
@<TRIPOS>BOND
     1     1     2    1
     2     2     3   ar
     3     3     4   ar
     4     4     5   ar
     5     5     6   ar
     6     6     7   ar
     7     2     7   ar
     8     5     8    1
     9     8     9   ar
    10     9    10   ar
    11    10    11   ar
    12    11    12   ar
    13     8    12   ar
    14    11    13   ar
    15    13    14   ar
    16    14    15   ar
    17    15    16   ar
    18    10    16   ar
    19    14    17    1
    20    17    18   ar
    21    18    19   ar
    22    19    20   ar
    23    20    21   ar
    24    17    21   ar
    25    20    22   ar
    26    22    23   ar
    27    23    24   ar
    28    24    25   ar
    29    19    25   ar
    30     1    26    1
    31     1    27    1
    32     1    28    1
    33     3    29    1
    34     4    30    1
    35     6    31    1
    36     7    32    1
    37    12    33    1
    38    13    34    1
    39    15    35    1
    40    16    36    1
    41    21    37    1
    42    22    38    1
    43    23    39    1
    44    24    40    1
    45    25    41    1
