@<TRIPOS>MOLECULE
/storage/saveena/protacpilot/work/docking_test/docking/mol2_for_p4ward/receptor_ligand.pdb
 30 34 0 0 0
SMALL
GASTEIGER

@<TRIPOS>ATOM
      1  C          0.7680   12.6350   -2.0150 C.3     1  UNL1        0.0048
      2  C          0.6130   14.0340   -1.4000 C.3     1  UNL1        0.0247
      3  C          1.9920   14.8290   -1.2610 C.3     1  UNL1        0.0335
      4  C          2.7900   14.6460    0.0380 C.ar    1  UNL1        0.0118
      5  C          2.4080   13.5710    0.7870 C.ar    1  UNL1        0.1306
      6  C          1.3720   13.8990    1.6240 C.ar    1  UNL1        0.0708
      7  C          1.5790   15.0570    2.3790 C.ar    1  UNL1        0.1346
      8  C          2.6230   15.9180    2.0440 C.ar    1  UNL1        0.0362
      9  C          0.0270   13.3380    1.1820 C.3     1  UNL1        0.1541
     10  N         -1.0560   13.5040    2.1500 N.ar    1  UNL1       -0.2114
     11  N         -2.0620   14.4410    1.9290 N.ar    1  UNL1       -0.2130
     12  C         -2.8490   14.4850    3.0960 C.ar    1  UNL1        0.3534
     13  N         -2.1700   13.7650    4.0760 N.ar    1  UNL1       -0.2106
     14  O         -3.9340   15.0450    3.1550 O.2     1  UNL1       -0.2443
     15  C         -2.7050   14.4020    0.6420 C.3     1  UNL1        0.1559
     16  C         -1.6570   14.3860   -0.4170 C.2     1  UNL1       -0.0062
     17  C         -1.1130   13.0680    3.4750 C.ar    1  UNL1        0.3537
     18  O         -0.3560   12.2500    3.9720 O.2     1  UNL1       -0.2443
     19  C          3.1630   15.7750    0.7690 C.ar    1  UNL1        0.0018
     20  C         -0.3880   13.9660   -0.2080 C.2     1  UNL1       -0.0202
     21  C         -2.4430   13.8250    5.4670 C.ar    1  UNL1        0.0726
     22  C         -1.4390   13.5410    6.4030 C.ar    1  UNL1        0.0178
     23  C         -1.6570   13.7140    7.7720 C.ar    1  UNL1        0.0015
     24  C         -2.8930   14.1540    8.2310 C.ar    1  UNL1        0.0001
     25  C         -3.9090   14.4220    7.3240 C.ar    1  UNL1        0.0015
     26  C         -3.6840   14.2660    5.9530 C.ar    1  UNL1        0.0178
     27  O          2.5700   12.3190    0.2880 O.3     1  UNL1       -0.5060
     28  H          3.3890   12.3370   -0.2410 H       1  UNL1        0.2922
     29  O          0.7340   15.5050    3.3440 O.3     1  UNL1       -0.5057
     30  H         -0.1670   15.3060    3.0410 H       1  UNL1        0.2922
@<TRIPOS>BOND
     1     1     2    1
     2     2     3    1
     3     2    20    1
     4     3     4    1
     5     4    19   ar
     6     4     5   ar
     7     5    27    1
     8     5     6   ar
     9     6     9    1
    10     6     7   ar
    11     7     8   ar
    12     7    29    1
    13     8    19   ar
    14     9    20    1
    15     9    10    1
    16    10    11   ar
    17    10    17   ar
    18    11    15    1
    19    11    12   ar
    20    12    14    2
    21    12    13   ar
    22    13    17   ar
    23    13    21    1
    24    15    16    1
    25    16    20    2
    26    17    18    2
    27    21    26   ar
    28    21    22   ar
    29    22    23   ar
    30    23    24   ar
    31    24    25   ar
    32    25    26   ar
    33    27    28    1
    34    29    30    1
