@<TRIPOS>MOLECULE
*****
 45 47 0 0 0
SMALL
GASTEIGER

@<TRIPOS>ATOM
      1 C           1.8658    1.6111   -3.3340 C.3     1  UNL1       -0.0397
      2 C           3.2312    1.2164   -2.8568 C.ar    1  UNL1       -0.0503
      3 C           3.6408   -0.1128   -2.9300 C.ar    1  UNL1       -0.0571
      4 C           4.8937   -0.4954   -2.4474 C.ar    1  UNL1       -0.0402
      5 C           5.7703    0.4331   -1.8807 C.ar    1  UNL1        0.0348
      6 C           5.3616    1.7698   -1.8100 C.ar    1  UNL1       -0.0402
      7 C           4.1033    2.1583   -2.2983 C.ar    1  UNL1       -0.0571
      8 N           7.0414    0.0786   -1.3620 N.am    1  UNL1       -0.2692
      9 C           7.6427   -1.1619   -1.4942 C.2     1  UNL1        0.3081
     10 O           7.1763   -2.1061   -2.1204 O.2     1  UNL1       -0.2522
     11 N           8.8831   -1.2268   -0.8666 N.am    1  UNL1       -0.2692
     12 C           9.6505   -2.4151   -0.9680 C.ar    1  UNL1        0.0348
     13 C          10.9864   -2.3226   -1.3506 C.ar    1  UNL1       -0.0397
     14 C          11.7084   -3.4889   -1.6249 C.ar    1  UNL1       -0.0479
     15 C          11.1201   -4.7566   -1.4772 C.ar    1  UNL1        0.0371
     16 C           9.8097   -4.8470   -1.0014 C.ar    1  UNL1       -0.0479
     17 C           9.0799   -3.6783   -0.7572 C.ar    1  UNL1       -0.0397
     18 C          11.9491   -5.9516   -1.8249 C.2     1  UNL1        0.2483
     19 O          13.1694   -5.8335   -1.7397 O.2     1  UNL1       -0.2699
     20 N          11.2630   -7.0866   -2.2365 N.am    1  UNL1       -0.2815
     21 C          11.8289   -8.3190   -2.6537 C.ar    1  UNL1        0.0337
     22 C          13.2024   -8.5756   -2.6946 C.ar    1  UNL1       -0.0405
     23 C          13.6902   -9.8112   -3.1375 C.ar    1  UNL1       -0.0600
     24 C          12.8095  -10.8100   -3.5390 C.ar    1  UNL1       -0.0616
     25 C          11.4376  -10.5728   -3.4976 C.ar    1  UNL1       -0.0600
     26 C          10.9503   -9.3342   -3.0572 C.ar    1  UNL1       -0.0405
     27 H           1.3597    0.7744   -3.8293 H       1  UNL1        0.0278
     28 H           1.9319    2.4310   -4.0551 H       1  UNL1        0.0278
     29 H           1.2480    1.9193   -2.4849 H       1  UNL1        0.0278
     30 H           2.9921   -0.8755   -3.3546 H       1  UNL1        0.0621
     31 H           5.1357   -1.5494   -2.5182 H       1  UNL1        0.0636
     32 H           6.0089    2.5325   -1.3857 H       1  UNL1        0.0636
     33 H           3.8042    3.2025   -2.2364 H       1  UNL1        0.0621
     34 H           7.5534    0.7990   -0.8765 H       1  UNL1        0.1564
     35 H           9.4005   -0.3609   -0.8584 H       1  UNL1        0.1564
     36 H          11.4577   -1.3591   -1.5205 H       1  UNL1        0.0636
     37 H          12.7317   -3.4060   -1.9883 H       1  UNL1        0.0626
     38 H           9.3351   -5.8042   -0.8106 H       1  UNL1        0.0626
     39 H           8.0499   -3.7625   -0.4141 H       1  UNL1        0.0636
     40 H          10.2573   -7.0248   -2.3190 H       1  UNL1        0.1551
     41 H          13.9310   -7.8298   -2.3954 H       1  UNL1        0.0636
     42 H          14.7634   -9.9845   -3.1695 H       1  UNL1        0.0618
     43 H          13.1918  -11.7673   -3.8846 H       1  UNL1        0.0618
     44 H          10.7456  -11.3523   -3.8082 H       1  UNL1        0.0618
     45 H           9.8759   -9.1811   -3.0403 H       1  UNL1        0.0636
@<TRIPOS>BOND
     1     1     2    1
     2     2     3   ar
     3     3     4   ar
     4     4     5   ar
     5     5     6   ar
     6     6     7   ar
     7     2     7   ar
     8     5     8    1
     9     8     9   am
    10     9    10    2
    11     9    11   am
    12    11    12    1
    13    12    13   ar
    14    13    14   ar
    15    14    15   ar
    16    15    16   ar
    17    16    17   ar
    18    12    17   ar
    19    15    18    1
    20    18    19    2
    21    18    20   am
    22    20    21    1
    23    21    22   ar
    24    22    23   ar
    25    23    24   ar
    26    24    25   ar
    27    25    26   ar
    28    21    26   ar
    29     1    27    1
    30     1    28    1
    31     1    29    1
    32     3    30    1
    33     4    31    1
    34     6    32    1
    35     7    33    1
    36     8    34    1
    37    11    35    1
    38    13    36    1
    39    14    37    1
    40    16    38    1
    41    17    39    1
    42    20    40    1
    43    22    41    1
    44    23    42    1
    45    24    43    1
    46    25    44    1
    47    26    45    1
