
     RDKit          3D

 20 21  0  0  0  0  0  0  0  0999 V2000
    3.9535    0.2286   -0.4721 O   0  0  0  0  0  0  0  0  0  0  0  0
    2.7014    0.2829   -0.3369 C   0  0  0  0  0  0  0  0  0  0  0  0
    2.0526    1.4628   -0.5089 N   0  0  0  0  0  0  0  0  0  0  0  0
    0.7025    1.5575   -0.3710 C   0  0  0  0  0  0  0  0  0  0  0  0
    0.1650    2.6914   -0.4793 O   0  0  0  0  0  0  0  0  0  0  0  0
   -0.0629    0.4021   -0.0778 C   0  0  0  0  0  0  0  0  0  0  0  0
   -1.4840    0.3918    0.0480 C   0  0  0  0  0  0  0  0  0  0  0  0
   -2.3004    1.5267   -0.2734 N   0  0  0  0  0  0  0  0  0  0  0  0
   -2.1306   -0.7844    0.4576 C   0  0  0  0  0  0  0  0  0  0  0  0
   -1.4106   -1.9538    0.6881 C   0  0  0  0  0  0  0  0  0  0  0  0
   -0.0301   -1.9707    0.5146 C   0  0  0  0  0  0  0  0  0  0  0  0
    0.6526   -0.8055    0.1377 C   0  0  0  0  0  0  0  0  0  0  0  0
    2.0068   -0.8359   -0.0083 N   0  0  0  0  0  0  0  0  0  0  0  0
    2.6061    2.3203   -0.7383 H   0  0  0  0  0  0  0  0  0  0  0  0
   -2.0435    2.1894   -1.0358 H   0  0  0  0  0  0  0  0  0  0  0  0
   -3.2843    1.5782    0.0735 H   0  0  0  0  0  0  0  0  0  0  0  0
   -3.2078   -0.8023    0.5688 H   0  0  0  0  0  0  0  0  0  0  0  0
   -1.9279   -2.8559    0.9885 H   0  0  0  0  0  0  0  0  0  0  0  0
    0.5112   -2.8931    0.6869 H   0  0  0  0  0  0  0  0  0  0  0  0
    2.5304   -1.7300    0.1380 H   0  0  0  0  0  0  0  0  0  0  0  0
  1  2  2  0
  2  3  1  0
  3  4  1  0
  4  5  2  0
  4  6  1  0
  6  7  2  0
  7  8  1  0
  7  9  1  0
  9 10  2  0
 10 11  1  0
 11 12  2  0
 12 13  1  0
 13  2  1  0
 12  6  1  0
  3 14  1  0
  8 15  1  0
  8 16  1  0
  9 17  1  0
 10 18  1  0
 11 19  1  0
 13 20  1  0
M  END
$$$$
