@<TRIPOS>MOLECULE
*****
 33 35 0 0 0
SMALL
GASTEIGER

@<TRIPOS>ATOM
      1 C           0.8994    0.3447    0.2720 C.3     1  UNL1       -0.0397
      2 C           2.3836    0.1622    0.1560 C.ar    1  UNL1       -0.0504
      3 C           3.2672    1.0829    0.7250 C.ar    1  UNL1       -0.0586
      4 C           4.6461    0.9426    0.5473 C.ar    1  UNL1       -0.0579
      5 C           5.1734   -0.1214   -0.2008 C.ar    1  UNL1       -0.0399
      6 C           4.2842   -1.0464   -0.7614 C.ar    1  UNL1       -0.0579
      7 C           2.9041   -0.9091   -0.5782 C.ar    1  UNL1       -0.0586
      8 C           6.6576   -0.1528   -0.4764 C.3     1  UNL1        0.0356
      9 C           7.2728   -1.5202   -0.6935 C.2     1  UNL1        0.1675
     10 O           7.2920   -2.0594   -1.8012 O.2     1  UNL1       -0.2917
     11 C           7.9289   -2.2067    0.4491 C.ar    1  UNL1        0.0214
     12 C           7.4686   -2.0529    1.7630 C.ar    1  UNL1       -0.0057
     13 C           8.1472   -2.7283    2.7569 C.ar    1  UNL1        0.1669
     14 C           9.2369   -3.5253    2.4885 C.ar    1  UNL1        0.1663
     15 C           9.7105   -3.7004    1.2075 C.ar    1  UNL1       -0.0155
     16 C           9.0415   -3.0358    0.1751 C.ar    1  UNL1       -0.0476
     17 O           9.7540   -4.0931    3.6099 O.3     1  UNL1       -0.4526
     18 C           8.8649   -3.5682    4.6171 C.3     1  UNL1        0.2332
     19 O           7.8416   -2.7008    4.0824 O.3     1  UNL1       -0.4526
     20 H           0.6473    1.1608    0.9573 H       1  UNL1        0.0278
     21 H           0.4290   -0.5675    0.6516 H       1  UNL1        0.0278
     22 H           0.4767    0.5863   -0.7091 H       1  UNL1        0.0278
     23 H           2.8891    1.9312    1.2911 H       1  UNL1        0.0620
     24 H           5.3063    1.6935    0.9769 H       1  UNL1        0.0620
     25 H           4.6465   -1.8701   -1.3743 H       1  UNL1        0.0620
     26 H           2.2339   -1.6323   -1.0388 H       1  UNL1        0.0620
     27 H           7.2075    0.3538    0.3270 H       1  UNL1        0.0394
     28 H           6.8510    0.4366   -1.3822 H       1  UNL1        0.0394
     29 H           6.6033   -1.4503    2.0121 H       1  UNL1        0.0662
     30 H          10.5681   -4.3326    1.0072 H       1  UNL1        0.0655
     31 H           9.3887   -3.1568   -0.8504 H       1  UNL1        0.0626
     32 H           9.4563   -3.0024    5.3459 H       1  UNL1        0.1166
     33 H           8.3817   -4.4069    5.1311 H       1  UNL1        0.1166
@<TRIPOS>BOND
     1     1     2    1
     2     2     3   ar
     3     3     4   ar
     4     4     5   ar
     5     5     6   ar
     6     6     7   ar
     7     2     7   ar
     8     5     8    1
     9     8     9    1
    10     9    10    2
    11     9    11    1
    12    11    12   ar
    13    12    13   ar
    14    13    14   ar
    15    14    15   ar
    16    15    16   ar
    17    11    16   ar
    18    14    17    1
    19    17    18    1
    20    18    19    1
    21    13    19    1
    22     1    20    1
    23     1    21    1
    24     1    22    1
    25     3    23    1
    26     4    24    1
    27     6    25    1
    28     7    26    1
    29     8    27    1
    30     8    28    1
    31    12    29    1
    32    15    30    1
    33    16    31    1
    34    18    32    1
    35    18    33    1
