@<TRIPOS>MOLECULE
*****
 40 44 0 0 0
SMALL
GASTEIGER

@<TRIPOS>ATOM
      1 C           0.9389    0.1847    0.1441 C.3     1  UNL1       -0.0397
      2 C           2.4340    0.1129    0.0481 C.ar    1  UNL1       -0.0504
      3 C           3.2421    1.1049    0.6136 C.ar    1  UNL1       -0.0582
      4 C           4.6322    1.0614    0.4600 C.ar    1  UNL1       -0.0509
      5 C           5.2372    0.0246   -0.2625 C.ar    1  UNL1        0.0173
      6 C           4.4270   -0.9898   -0.7876 C.ar    1  UNL1       -0.0509
      7 C           3.0382   -0.9430   -0.6420 C.ar    1  UNL1       -0.0582
      8 C           6.6785   -0.0093   -0.5109 C.ar    1  UNL1        0.1393
      9 N           7.4183   -1.0893   -0.6993 N.ar    1  UNL1       -0.2277
     10 C           8.6839   -0.6448   -0.9786 C.ar    1  UNL1        0.0902
     11 C           8.7294    0.7407   -0.9775 C.ar    1  UNL1        0.0781
     12 N           7.4482    1.1203   -0.6650 N.ar    1  UNL1       -0.3373
     13 C           9.8895    1.4679   -1.2620 C.ar    1  UNL1        0.0585
     14 C          11.0476    0.7397   -1.5432 C.ar    1  UNL1        0.0352
     15 C          11.0326   -0.6631   -1.5417 C.ar    1  UNL1       -0.0481
     16 C           9.8524   -1.3681   -1.2614 C.ar    1  UNL1       -0.0335
     17 C          12.3022    1.4579   -1.8470 C.2     1  UNL1        0.1946
     18 O          13.3279    0.8347   -2.0960 O.2     1  UNL1       -0.2866
     19 C          12.3074    2.9358   -1.8463 C.ar    1  UNL1        0.0331
     20 C          11.1406    3.6511   -1.5726 C.ar    1  UNL1        0.0331
     21 C          11.1598    5.0517   -1.5796 C.ar    1  UNL1       -0.0502
     22 C          12.3474    5.7320   -1.8560 C.ar    1  UNL1       -0.0610
     23 C          13.5153    5.0172   -2.1259 C.ar    1  UNL1       -0.0610
     24 C          13.4972    3.6220   -2.1232 C.ar    1  UNL1       -0.0502
     25 C           9.8835    2.9382   -1.2699 C.2     1  UNL1        0.1965
     26 O           8.8472    3.5488   -1.0277 O.2     1  UNL1       -0.2865
     27 H           0.6160    1.0230    0.7701 H       1  UNL1        0.0278
     28 H           0.5394   -0.7350    0.5821 H       1  UNL1        0.0278
     29 H           0.5091    0.3249   -0.8533 H       1  UNL1        0.0278
     30 H           2.7958    1.9252    1.1716 H       1  UNL1        0.0620
     31 H           5.2290    1.8459    0.9183 H       1  UNL1        0.0625
     32 H           4.8789   -1.8136   -1.3378 H       1  UNL1        0.0625
     33 H           2.4318   -1.7308   -1.0835 H       1  UNL1        0.0620
     34 H           7.1280    2.0794   -0.6165 H       1  UNL1        0.1674
     35 H          11.9416   -1.2208   -1.7639 H       1  UNL1        0.0625
     36 H           9.8326   -2.4532   -1.2657 H       1  UNL1        0.0640
     37 H          10.2537    5.6170   -1.3699 H       1  UNL1        0.0625
     38 H          12.3629    6.8193   -1.8600 H       1  UNL1        0.0618
     39 H          14.4408    5.5473   -2.3393 H       1  UNL1        0.0618
     40 H          14.4126    3.0721   -2.3363 H       1  UNL1        0.0625
@<TRIPOS>BOND
     1     1     2    1
     2     2     3   ar
     3     3     4   ar
     4     4     5   ar
     5     5     6   ar
     6     6     7   ar
     7     2     7   ar
     8     5     8    1
     9     8     9   ar
    10     9    10   ar
    11    10    11   ar
    12    11    12   ar
    13     8    12   ar
    14    11    13   ar
    15    13    14   ar
    16    14    15   ar
    17    15    16   ar
    18    10    16   ar
    19    14    17    1
    20    17    18    2
    21    17    19    1
    22    19    20   ar
    23    20    21   ar
    24    21    22   ar
    25    22    23   ar
    26    23    24   ar
    27    19    24   ar
    28    20    25    1
    29    13    25    1
    30    25    26    2
    31     1    27    1
    32     1    28    1
    33     1    29    1
    34     3    30    1
    35     4    31    1
    36     6    32    1
    37     7    33    1
    38    12    34    1
    39    15    35    1
    40    16    36    1
    41    21    37    1
    42    22    38    1
    43    23    39    1
    44    24    40    1
