@<TRIPOS>MOLECULE
*****
 51 51 0 0 0
SMALL
GASTEIGER

@<TRIPOS>ATOM
      1 C           3.2747   -1.1291    1.2620 C.3     1  UNL1       -0.0389
      2 C           2.8759   -0.1919    0.1591 C.ar    1  UNL1       -0.0352
      3 C           3.3902    1.1189    0.2050 C.ar    1  UNL1       -0.0370
      4 C           3.0860    2.0302   -0.8026 C.ar    1  UNL1        0.0385
      5 N           2.3168    1.6993   -1.8600 N.ar    1  UNL1       -0.2594
      6 C           1.8291    0.4318   -1.8993 C.ar    1  UNL1        0.0402
      7 C           2.0422   -0.5381   -0.9187 C.ar    1  UNL1        0.0577
      8 C           1.3703   -1.8494   -1.1531 C.2     1  UNL1        0.2458
      9 O           1.1634   -2.2265   -2.3024 O.2     1  UNL1       -0.2701
     10 N           0.9432   -2.5613   -0.0525 N.am    1  UNL1       -0.3108
     11 C           0.2404   -3.8332   -0.1722 C.3     1  UNL1        0.0201
     12 C          -1.2743   -3.6554   -0.2066 C.3     1  UNL1        0.0395
     13 C          -1.9673   -5.0031   -0.2546 C.2     1  UNL1        0.2145
     14 O          -1.4883   -6.0177    0.2426 O.2     1  UNL1       -0.2758
     15 N          -3.2018   -4.9770   -0.8597 N.am    1  UNL1       -0.3148
     16 C          -4.0355   -6.1582   -1.0096 C.3     1  UNL1        0.0198
     17 C          -4.9950   -6.3720    0.1563 C.3     1  UNL1        0.0395
     18 C          -6.0273   -5.2633    0.2484 C.2     1  UNL1        0.2145
     19 O          -6.0779   -4.3133   -0.5266 O.2     1  UNL1       -0.2758
     20 N          -6.8987   -5.4152    1.3048 N.am    1  UNL1       -0.3148
     21 C          -7.9655   -4.4670    1.5683 C.3     1  UNL1        0.0198
     22 C          -9.2221   -4.7281    0.7458 C.3     1  UNL1        0.0393
     23 C          -9.8964   -6.0251    1.1314 C.2     1  UNL1        0.2120
     24 O          -9.4622   -6.8204    1.9561 O.2     1  UNL1       -0.2760
     25 N         -11.0653   -6.2708    0.4710 N.am    1  UNL1       -0.3293
     26 C           3.5700    3.4477   -0.7294 C.3     1  UNL1       -0.0224
     27 H           4.0815   -0.7035    1.8707 H       1  UNL1        0.0278
     28 H           3.6473   -2.0742    0.8571 H       1  UNL1        0.0278
     29 H           2.4374   -1.3064    1.9417 H       1  UNL1        0.0278
     30 H           4.0338    1.4281    1.0250 H       1  UNL1        0.0638
     31 H           1.2232    0.2173   -2.7780 H       1  UNL1        0.0837
     32 H           0.9711   -2.1361    0.8609 H       1  UNL1        0.1490
     33 H           0.5436   -4.4388    0.6885 H       1  UNL1        0.0467
     34 H           0.5789   -4.3521   -1.0768 H       1  UNL1        0.0467
     35 H          -1.5662   -3.0474   -1.0701 H       1  UNL1        0.0374
     36 H          -1.6151   -3.1345    0.6963 H       1  UNL1        0.0374
     37 H          -3.6199   -4.0886   -1.1187 H       1  UNL1        0.1487
     38 H          -3.3862   -7.0350   -1.1120 H       1  UNL1        0.0467
     39 H          -4.5871   -6.0404   -1.9486 H       1  UNL1        0.0467
     40 H          -4.4468   -6.4268    1.1035 H       1  UNL1        0.0374
     41 H          -5.5285   -7.3194    0.0117 H       1  UNL1        0.0374
     42 H          -6.9384   -6.3013    1.8000 H       1  UNL1        0.1487
     43 H          -7.5928   -3.4607    1.3450 H       1  UNL1        0.0467
     44 H          -8.1804   -4.5140    2.6412 H       1  UNL1        0.0467
     45 H          -8.9905   -4.7573   -0.3242 H       1  UNL1        0.0374
     46 H          -9.9369   -3.9154    0.9199 H       1  UNL1        0.0374
     47 H         -11.4265   -5.6705   -0.2571 H       1  UNL1        0.1449
     48 H         -11.5471   -7.1392    0.6674 H       1  UNL1        0.1449
     49 H           4.2711    3.5943    0.0987 H       1  UNL1        0.0292
     50 H           2.7179    4.1175   -0.5766 H       1  UNL1        0.0292
     51 H           4.0791    3.7251   -1.6574 H       1  UNL1        0.0292
@<TRIPOS>BOND
     1     1     2    1
     2     2     3   ar
     3     3     4   ar
     4     4     5   ar
     5     5     6   ar
     6     6     7   ar
     7     2     7   ar
     8     7     8    1
     9     8     9    2
    10     8    10   am
    11    10    11    1
    12    11    12    1
    13    12    13    1
    14    13    14    2
    15    13    15   am
    16    15    16    1
    17    16    17    1
    18    17    18    1
    19    18    19    2
    20    18    20   am
    21    20    21    1
    22    21    22    1
    23    22    23    1
    24    23    24    2
    25    23    25   am
    26     4    26    1
    27     1    27    1
    28     1    28    1
    29     1    29    1
    30     3    30    1
    31     6    31    1
    32    10    32    1
    33    11    33    1
    34    11    34    1
    35    12    35    1
    36    12    36    1
    37    15    37    1
    38    16    38    1
    39    16    39    1
    40    17    40    1
    41    17    41    1
    42    20    42    1
    43    21    43    1
    44    21    44    1
    45    22    45    1
    46    22    46    1
    47    25    47    1
    48    25    48    1
    49    26    49    1
    50    26    50    1
    51    26    51    1
