
     RDKit          3D

 50 54  0  0  0  0  0  0  0  0999 V2000
   -1.9011    1.9571    3.1498 C   0  0  0  0  0  0  0  0  0  0  0  0
   -1.9656    0.4424    3.3960 C   0  0  0  0  0  0  0  0  0  0  0  0
   -0.9019   -0.3026    2.5281 C   0  0  0  0  0  0  0  0  0  0  0  0
    0.0131   -1.0857    3.1457 C   0  0  0  0  0  0  0  0  0  0  0  0
    1.0671   -1.8719    2.4282 C   0  0  0  0  0  0  0  0  0  0  0  0
    1.1899   -1.3897    1.0760 N   0  0  0  0  0  0  0  0  0  0  0  0
    2.1545   -1.8559    0.1776 C   0  0  0  0  0  0  0  0  0  0  0  0
    3.1894   -2.4073    0.5268 O   0  0  0  0  0  0  0  0  0  0  0  0
    1.6628   -1.6346   -1.1072 N   0  0  0  0  0  0  0  0  0  0  0  0
    0.3736   -1.1151   -0.9964 C   0  0  0  0  0  0  0  0  0  0  0  0
   -0.3285   -0.6155   -1.8683 O   0  0  0  0  0  0  0  0  0  0  0  0
    0.0071   -1.1658    0.3642 N   0  0  0  0  0  0  0  0  0  0  0  0
   -0.9253   -0.2005    0.9494 C   0  0  0  0  0  0  0  0  0  0  0  0
   -2.3455   -0.4051    0.3661 C   0  0  0  0  0  0  0  0  0  0  0  0
   -2.9070    0.6431   -0.3731 C   0  0  0  0  0  0  0  0  0  0  0  0
   -4.0909    1.2263    0.0620 C   0  0  0  0  0  0  0  0  0  0  0  0
   -4.5708    0.8395    1.3121 C   0  0  0  0  0  0  0  0  0  0  0  0
   -3.9619   -0.2533    1.9454 C   0  0  0  0  0  0  0  0  0  0  0  0
   -3.1961   -1.1062    1.1843 C   0  0  0  0  0  0  0  0  0  0  0  0
   -2.8511   -2.3275    1.6900 O   0  0  0  0  0  0  0  0  0  0  0  0
   -3.4557   -0.1041    3.3727 C   0  0  0  0  0  0  0  0  0  0  0  0
   -2.2500    1.2117   -1.4216 O   0  0  0  0  0  0  0  0  0  0  0  0
    2.3590   -1.8872   -2.3218 C   0  0  0  0  0  0  0  0  0  0  0  0
    1.6936   -1.8988   -3.5585 C   0  0  0  0  0  0  0  0  0  0  0  0
    2.3731   -2.1818   -4.7531 C   0  0  0  0  0  0  0  0  0  0  0  0
    3.7433   -2.4437   -4.7416 C   0  0  0  0  0  0  0  0  0  0  0  0
    4.4296   -2.4116   -3.5270 C   0  0  0  0  0  0  0  0  0  0  0  0
    3.7394   -2.1488   -2.3334 C   0  0  0  0  0  0  0  0  0  0  0  0
    4.4145   -2.7669   -6.0226 C   0  0  0  0  0  0  0  0  0  0  0  0
    3.8589   -2.9382   -7.0919 O   0  0  0  0  0  0  0  0  0  0  0  0
    5.7496   -2.8658   -5.9013 O   0  0  0  0  0  0  0  0  0  0  0  0
   -2.1522    2.2293    2.1213 H   0  0  0  0  0  0  0  0  0  0  0  0
   -0.8955    2.3389    3.3515 H   0  0  0  0  0  0  0  0  0  0  0  0
   -2.5933    2.4834    3.8147 H   0  0  0  0  0  0  0  0  0  0  0  0
   -1.6629    0.3219    4.4479 H   0  0  0  0  0  0  0  0  0  0  0  0
    0.0078   -1.1881    4.2263 H   0  0  0  0  0  0  0  0  0  0  0  0
    2.0359   -1.7526    2.9216 H   0  0  0  0  0  0  0  0  0  0  0  0
    0.8231   -2.9405    2.4131 H   0  0  0  0  0  0  0  0  0  0  0  0
   -0.5647    0.8013    0.6785 H   0  0  0  0  0  0  0  0  0  0  0  0
   -4.5044    2.0872   -0.4556 H   0  0  0  0  0  0  0  0  0  0  0  0
   -5.2661    1.4823    1.8452 H   0  0  0  0  0  0  0  0  0  0  0  0
   -2.3124   -2.7760    1.0155 H   0  0  0  0  0  0  0  0  0  0  0  0
   -4.1183    0.5577    3.9452 H   0  0  0  0  0  0  0  0  0  0  0  0
   -3.4886   -1.0835    3.8691 H   0  0  0  0  0  0  0  0  0  0  0  0
   -1.5956    0.5624   -1.7609 H   0  0  0  0  0  0  0  0  0  0  0  0
    0.6238   -1.7224   -3.6358 H   0  0  0  0  0  0  0  0  0  0  0  0
    1.8213   -2.1966   -5.6909 H   0  0  0  0  0  0  0  0  0  0  0  0
    5.4991   -2.6075   -3.4865 H   0  0  0  0  0  0  0  0  0  0  0  0
    4.3316   -2.1365   -1.4201 H   0  0  0  0  0  0  0  0  0  0  0  0
    6.0495   -3.1178   -6.8015 H   0  0  0  0  0  0  0  0  0  0  0  0
  1  2  1  0
  2  3  1  0
  3  4  2  0
  4  5  1  0
  5  6  1  0
  6  7  1  0
  7  8  2  0
  7  9  1  0
  9 10  1  0
 10 11  2  0
 10 12  1  0
 12 13  1  0
 13 14  1  0
 14 15  2  0
 15 16  1  0
 16 17  2  0
 17 18  1  0
 18 19  2  0
 19 20  1  0
 18 21  1  0
 15 22  1  0
  9 23  1  0
 23 24  1  0
 24 25  2  0
 25 26  1  0
 26 27  2  0
 27 28  1  0
 26 29  1  0
 29 30  2  0
 29 31  1  0
 21  2  1  0
 13  3  1  0
 12  6  1  0
 19 14  1  0
 28 23  2  0
  1 32  1  0
  1 33  1  0
  1 34  1  0
  2 35  1  0
  4 36  1  0
  5 37  1  0
  5 38  1  0
 13 39  1  0
 16 40  1  0
 17 41  1  0
 20 42  1  0
 21 43  1  0
 21 44  1  0
 22 45  1  0
 24 46  1  0
 25 47  1  0
 27 48  1  0
 28 49  1  0
 31 50  1  0
M  END
$$$$
