/storage/saveena/protacpilot/ICM_HMGB2_Hypothesis_Testing/02_H2_ring_modified_ICM_nanobinder/analog_HMGB2_docking/a1_4COOH.pdbqt
 OpenBabel07212613583D

 34 34  0  0  1  0  0  0  0  0999 V2000
   -0.9020   -0.3030    2.5280 C   0  0  0  0  0  0  0  0  0  0  0  0
    0.0130   -1.0860    3.1460 C   0  0  0  0  0  0  0  0  0  0  0  0
    1.0670   -1.8720    2.4280 C   0  0  0  0  0  0  0  0  0  0  0  0
    1.1900   -1.3900    1.0760 N   0  0  0  0  0  0  0  0  0  0  0  0
    2.1550   -1.8560    0.1780 C   0  0  0  0  0  0  0  0  0  0  0  0
    3.1890   -2.4070    0.5270 O   0  0  0  0  0  0  0  0  0  0  0  0
    1.6630   -1.6350   -1.1070 N   0  0  0  0  0  0  0  0  0  0  0  0
    0.3740   -1.1150   -0.9960 C   0  0  0  0  0  0  0  0  0  0  0  0
   -0.3290   -0.6160   -1.8680 O   0  0  0  0  0  0  0  0  0  0  0  0
    0.0070   -1.1660    0.3640 N   0  0  0  0  0  0  0  0  0  0  0  0
   -0.9250   -0.2010    0.9490 C   0  0  1  0  0  0  0  0  0  0  0  0
   -1.9660    0.4420    3.3960 *   0  0  0  0  0  0  0  0  0  0  0  0
   -1.9010    1.9570    3.1500 C   0  0  0  0  0  0  0  0  0  0  0  0
   -2.3450   -0.4050    0.3660 C   0  0  0  0  0  0  0  0  0  0  0  0
   -2.9070    0.6430   -0.3730 C   0  0  0  0  0  0  0  0  0  0  0  0
   -3.1960   -1.1060    1.1840 C   0  0  0  0  0  0  0  0  0  0  0  0
   -4.0910    1.2260    0.0620 C   0  0  0  0  0  0  0  0  0  0  0  0
   -3.9620   -0.2530    1.9450 C   0  0  0  0  0  0  0  0  0  0  0  0
   -4.5710    0.8400    1.3120 C   0  0  0  0  0  0  0  0  0  0  0  0
   -2.2500    1.2120   -1.4220 O   0  0  0  0  0  0  0  0  0  0  0  0
   -1.5960    0.5620   -1.7610 H   0  0  0  0  0  0  0  0  0  0  0  0
   -2.8510   -2.3270    1.6900 O   0  0  0  0  0  0  0  0  0  0  0  0
   -2.3120   -2.7760    1.0150 H   0  0  0  0  0  0  0  0  0  0  0  0
   -3.4560   -0.1040    3.3730 *   0  0  0  0  0  0  0  0  0  0  0  0
    2.3590   -1.8870   -2.3220 C   0  0  0  0  0  0  0  0  0  0  0  0
    1.6940   -1.8990   -3.5580 C   0  0  0  0  0  0  0  0  0  0  0  0
    3.7390   -2.1490   -2.3330 C   0  0  0  0  0  0  0  0  0  0  0  0
    2.3730   -2.1820   -4.7530 C   0  0  0  0  0  0  0  0  0  0  0  0
    4.4300   -2.4120   -3.5270 C   0  0  0  0  0  0  0  0  0  0  0  0
    3.7430   -2.4440   -4.7420 C   0  0  0  0  0  0  0  0  0  0  0  0
    4.4150   -2.7670   -6.0230 C   0  0  0  0  0  0  0  0  0  0  0  0
    3.8590   -2.9380   -7.0920 O   0  0  0  0  0  0  0  0  0  0  0  0
    5.7500   -2.8660   -5.9010 O   0  0  0  0  0  0  0  0  0  0  0  0
    6.0500   -3.1180   -6.8010 H   0  0  0  0  0  0  0  0  0  0  0  0
  1  2  2  0  0  0  0
  3  2  1  0  0  0  0
  4  3  1  0  0  0  0
  5  6  2  0  0  0  0
  5  4  1  0  0  0  0
  7  8  1  0  0  0  0
  7  5  1  0  0  0  0
  8 10  1  0  0  0  0
  9  8  2  0  0  0  0
 10 11  1  0  0  0  0
 10  4  1  0  0  0  0
 11 14  1  6  0  0  0
 11  1  1  0  0  0  0
 14 16  2  0  0  0  0
 15 17  2  0  0  0  0
 15 14  1  0  0  0  0
 16 22  1  0  0  0  0
 16 18  1  0  0  0  0
 17 19  1  0  0  0  0
 19 18  2  0  0  0  0
 20 15  1  0  0  0  0
 21 20  1  0  0  0  0
 23 22  1  0  0  0  0
 25  7  1  0  0  0  0
 26 25  2  0  0  0  0
 27 25  1  0  0  0  0
 28 30  2  0  0  0  0
 28 26  1  0  0  0  0
 29 27  2  0  0  0  0
 30 29  1  0  0  0  0
 31 33  1  0  0  0  0
 31 30  1  0  0  0  0
 32 31  2  0  0  0  0
 34 33  1  0  0  0  0
M  END
>  <REMARK>
 SMILES CC1Cc2ccc(O)c(c2O)C2C1=CCn1c(=O)n(-c3ccc(C(=O)O)cc3)c(=O)n12
 SMILES IDX 13 1 14 2 15 3 16 4 17 5 18 6 19 7 29 8 30 9 31 10 12 11
 SMILES IDX 2 12 1 13 9 15 7 16 10 17 6 18 4 19 5 20 8 21 11 23 3 25
 SMILES IDX 20 27 21 28 28 29 22 30 27 31 23 32 24 33 25 34 26 35
 H PARENT 8 22 11 24 26 36
 Flexibility Score:    8.900

>  <TORSDO>
F 5

$$$$
