
     RDKit          3D

 50 54  0  0  0  0  0  0  0  0999 V2000
   -2.3051    2.0631    3.1237 C   0  0  0  0  0  0  0  0  0  0  0  0
   -2.2635    0.5313    3.1952 C   0  0  0  0  0  0  0  0  0  0  0  0
   -1.0096   -0.0284    2.4589 C   0  0  0  0  0  0  0  0  0  0  0  0
   -0.1432   -0.7785    3.1816 C   0  0  0  0  0  0  0  0  0  0  0  0
    1.1425   -1.3250    2.6257 C   0  0  0  0  0  0  0  0  0  0  0  0
    1.0782   -1.4199    1.1741 N   0  0  0  0  0  0  0  0  0  0  0  0
    1.9132   -2.0855    0.3531 C   0  0  0  0  0  0  0  0  0  0  0  0
    2.8290   -2.8547    0.7519 O   0  0  0  0  0  0  0  0  0  0  0  0
    1.6418   -1.8278   -0.9466 N   0  0  0  0  0  0  0  0  0  0  0  0
    0.6116   -0.9529   -0.8662 C   0  0  0  0  0  0  0  0  0  0  0  0
    0.0797   -0.3961   -1.8640 O   0  0  0  0  0  0  0  0  0  0  0  0
    0.2568   -0.7131    0.4178 N   0  0  0  0  0  0  0  0  0  0  0  0
   -0.7105    0.2565    0.9484 C   0  0  0  0  0  0  0  0  0  0  0  0
   -1.9829    0.2290    0.1145 C   0  0  0  0  0  0  0  0  0  0  0  0
   -2.4697    1.4455   -0.4220 C   0  0  0  0  0  0  0  0  0  0  0  0
   -3.7944    1.8241   -0.1444 C   0  0  0  0  0  0  0  0  0  0  0  0
   -4.4995    1.1064    0.8349 C   0  0  0  0  0  0  0  0  0  0  0  0
   -3.9374   -0.0816    1.3406 C   0  0  0  0  0  0  0  0  0  0  0  0
   -2.9345   -0.6700    0.5877 C   0  0  0  0  0  0  0  0  0  0  0  0
   -2.6642   -2.0332    0.7048 O   0  0  0  0  0  0  0  0  0  0  0  0
   -3.6384   -0.1417    2.8180 C   0  0  0  0  0  0  0  0  0  0  0  0
   -1.6422    2.3148   -1.1304 O   0  0  0  0  0  0  0  0  0  0  0  0
    2.3074   -2.3241   -2.1235 C   0  0  0  0  0  0  0  0  0  0  0  0
    1.5689   -2.6522   -3.2714 C   0  0  0  0  0  0  0  0  0  0  0  0
    2.2118   -3.1345   -4.4150 C   0  0  0  0  0  0  0  0  0  0  0  0
    3.6081   -3.2965   -4.4333 C   0  0  0  0  0  0  0  0  0  0  0  0
    4.3463   -2.9664   -3.2844 C   0  0  0  0  0  0  0  0  0  0  0  0
    3.7020   -2.4855   -2.1409 C   0  0  0  0  0  0  0  0  0  0  0  0
    4.2937   -3.8058   -5.6415 C   0  0  0  0  0  0  0  0  0  0  0  0
    3.6331   -4.1014   -6.6740 O   0  0  0  0  0  0  0  0  0  0  0  0
    5.6773   -3.9637   -5.6494 O   0  0  0  0  0  0  0  0  0  0  0  0
   -2.3217    2.4300    2.0824 H   0  0  0  0  0  0  0  0  0  0  0  0
   -1.4029    2.4843    3.6166 H   0  0  0  0  0  0  0  0  0  0  0  0
   -3.2007    2.4510    3.6540 H   0  0  0  0  0  0  0  0  0  0  0  0
   -2.1546    0.3193    4.2828 H   0  0  0  0  0  0  0  0  0  0  0  0
   -0.3306   -0.9658    4.2349 H   0  0  0  0  0  0  0  0  0  0  0  0
    1.9769   -0.6512    2.9134 H   0  0  0  0  0  0  0  0  0  0  0  0
    1.3262   -2.3316    3.0583 H   0  0  0  0  0  0  0  0  0  0  0  0
   -0.2403    1.2623    0.8976 H   0  0  0  0  0  0  0  0  0  0  0  0
   -4.1801    2.7676   -0.5083 H   0  0  0  0  0  0  0  0  0  0  0  0
   -5.3499    1.5658    1.3224 H   0  0  0  0  0  0  0  0  0  0  0  0
   -1.8560   -2.4517    0.2604 H   0  0  0  0  0  0  0  0  0  0  0  0
   -4.4639    0.3326    3.3930 H   0  0  0  0  0  0  0  0  0  0  0  0
   -3.6091   -1.2076    3.1348 H   0  0  0  0  0  0  0  0  0  0  0  0
   -0.6769    2.0868   -1.3335 H   0  0  0  0  0  0  0  0  0  0  0  0
    0.4911   -2.5540   -3.2766 H   0  0  0  0  0  0  0  0  0  0  0  0
    1.6144   -3.3836   -5.2832 H   0  0  0  0  0  0  0  0  0  0  0  0
    5.4235   -3.0753   -3.2686 H   0  0  0  0  0  0  0  0  0  0  0  0
    4.2967   -2.2194   -1.2771 H   0  0  0  0  0  0  0  0  0  0  0  0
    6.1566   -4.3116   -6.4713 H   0  0  0  0  0  0  0  0  0  0  0  0
  1  2  1  0
  2  3  1  0
  3  4  2  0
  4  5  1  0
  5  6  1  0
  6  7  1  0
  7  8  2  0
  7  9  1  0
  9 10  1  0
 10 11  2  0
 10 12  1  0
 12 13  1  0
 13 14  1  0
 14 15  2  0
 15 16  1  0
 16 17  2  0
 17 18  1  0
 18 19  2  0
 19 20  1  0
 18 21  1  0
 15 22  1  0
  9 23  1  0
 23 24  1  0
 24 25  2  0
 25 26  1  0
 26 27  2  0
 27 28  1  0
 26 29  1  0
 29 30  2  0
 29 31  1  0
 21  2  1  0
 13  3  1  0
 12  6  1  0
 19 14  1  0
 28 23  2  0
  1 32  1  0
  1 33  1  0
  1 34  1  0
  2 35  1  0
  4 36  1  0
  5 37  1  0
  5 38  1  0
 13 39  1  0
 16 40  1  0
 17 41  1  0
 20 42  1  0
 21 43  1  0
 21 44  1  0
 22 45  1  0
 24 46  1  0
 25 47  1  0
 27 48  1  0
 28 49  1  0
 31 50  1  0
M  END
$$$$
