@<TRIPOS>MOLECULE
/storage/saveena/protacpilot/work/protac_design/Hoechst_33258/docking/mol2_for_p4ward/receptor_ligand.pdb
 38 43 0 0 0
SMALL
GASTEIGER

@<TRIPOS>ATOM
      1  C          6.6000   12.6130   11.5400 C.ar    1  UNL1        0.0209
      2  C          7.2390   11.3660   11.4290 C.ar    1  UNL1        0.0032
      3  C          8.4520   11.2180   10.7380 C.ar    1  UNL1        0.0207
      4  C          9.0450   12.3530   10.1730 C.ar    1  UNL1        0.0984
      5  N         10.2190   12.4740    9.4770 N.ar    1  UNL1       -0.2270
      6  C         10.3590   13.7600    9.2020 C.ar    1  UNL1        0.1406
      7  N          9.2710   14.4580    9.6810 N.ar    1  UNL1       -0.3373
      8  H          9.1320   15.4530    9.6140 H       1  UNL1        0.1674
      9  C          8.4230   13.5830   10.3130 C.ar    1  UNL1        0.0756
     10  C          7.2060   13.7570   10.9830 C.ar    1  UNL1        0.0201
     11  C          1.8240   10.4510   13.0770 C.ar    1  UNL1        0.0494
     12  C          2.7860    9.8530   12.2440 C.ar    1  UNL1        0.0147
     13  C          3.9850   10.4850   11.8760 C.ar    1  UNL1        0.0043
     14  C          4.2530   11.7790   12.3530 C.ar    1  UNL1        0.0364
     15  C          5.3150   12.7370   12.2440 C.ar    1  UNL1        0.1021
     16  N          4.9960   13.8710   12.8960 N.ar    1  UNL1       -0.1727
     17  N          3.7940   13.6200   13.4350 N.ar    1  UNL1       -0.2757
     18  H          3.3590   14.3450   13.9930 H       1  UNL1        0.1889
     19  C          3.2910   12.3840   13.1470 C.ar    1  UNL1        0.0765
     20  C          2.0910   11.7580   13.5210 C.ar    1  UNL1        0.0330
     21  N         -1.2010    8.4270   15.2980 N.3     1  UNL1       -0.2698
     22  C         -1.0960    9.9070   15.1940 C.3     1  UNL1        0.0938
     23  C         -0.5790   10.4370   13.8310 C.3     1  UNL1        0.1081
     24  N          0.6790    9.7710   13.4500 N.pl3   1  UNL1       -0.3046
     25  C          0.6500    8.3000   13.5430 C.3     1  UNL1        0.1081
     26  C          0.1210    7.8660   14.9290 C.3     1  UNL1        0.0938
     27  C         -2.4920    6.4140   14.5190 C.3     1  UNL1        0.0188
     28  C         -2.3030    7.9260   14.4600 C.3     1  UNL1        0.0722
     29  C         11.5210   14.3650    8.5340 C.ar    1  UNL1        0.0372
     30  C         11.6260   15.7440    8.3020 C.ar    1  UNL1        0.0063
     31  C         12.7770   16.2830    7.7210 C.ar    1  UNL1        0.0399
     32  C         13.8250   15.4410    7.3770 C.ar    1  UNL1        0.1677
     33  C         13.7490   14.0600    7.5780 C.ar    1  UNL1        0.1722
     34  C         12.5900   13.5290    8.1460 C.ar    1  UNL1        0.0430
     35  O         14.9550   15.9990    6.8440 O.3     1  UNL1       -0.5029
     36  H         15.5670   15.2480    6.7100 H       1  UNL1        0.2923
     37  O         14.8610   13.3570    7.1930 O.3     1  UNL1       -0.4684
     38  C         14.8230   11.9470    7.3880 C.3     1  UNL1        0.2526
@<TRIPOS>BOND
     1     1    10   ar
     2     1     2   ar
     3     1    15    1
     4     2     3   ar
     5     3     4   ar
     6     4     5   ar
     7     4     9   ar
     8     5     6   ar
     9     6    29    1
    10     6     7   ar
    11     7     8    1
    12     7     9   ar
    13     9    10   ar
    14    11    12   ar
    15    11    24    1
    16    11    20   ar
    17    12    13   ar
    18    13    14   ar
    19    14    15   ar
    20    14    19   ar
    21    15    16   ar
    22    16    17   ar
    23    17    19   ar
    24    17    18    1
    25    19    20   ar
    26    21    28    1
    27    21    26    1
    28    21    22    1
    29    22    23    1
    30    23    24    1
    31    24    25    1
    32    25    26    1
    33    27    28    1
    34    29    34   ar
    35    29    30   ar
    36    30    31   ar
    37    31    32   ar
    38    32    35    1
    39    32    33   ar
    40    33    37    1
    41    33    34   ar
    42    35    36    1
    43    37    38    1
