@<TRIPOS>MOLECULE
*****
 63 68 0 0 0
SMALL
GASTEIGER

@<TRIPOS>ATOM
      1 C           2.2762   -0.5776   -1.1589 C.3     1  UNL1       -0.0524
      2 C           2.2200    0.0462    0.2338 C.3     1  UNL1       -0.0038
      3 N           3.3697    0.9068    0.5354 N.3     1  UNL1       -0.2996
      4 C           3.3998    2.1809   -0.2277 C.3     1  UNL1        0.0147
      5 C           2.5133    3.3584    0.2787 C.3     1  UNL1        0.0250
      6 N           2.6543    3.5252    1.7346 N.pl3   1  UNL1       -0.3274
      7 C           2.4456    2.2797    2.4822 C.3     1  UNL1        0.0250
      8 C           3.4456    1.2120    1.9870 C.3     1  UNL1        0.0147
      9 C           2.9095    4.7371    2.3502 C.ar    1  UNL1        0.0318
     10 C           3.5767    4.8090    3.5918 C.ar    1  UNL1       -0.0152
     11 C           3.8015    6.0564    4.1926 C.ar    1  UNL1        0.0681
     12 C           3.3986    7.2579    3.6309 C.ar    1  UNL1        0.0275
     13 C           2.7663    7.2049    2.3756 C.ar    1  UNL1       -0.0487
     14 C           2.5303    5.9553    1.7673 C.ar    1  UNL1       -0.0399
     15 C           3.7820    8.2702    4.5794 C.ar    1  UNL1        0.1003
     16 N           4.4335    7.7210    5.6213 N.ar    1  UNL1       -0.1727
     17 N           4.4208    6.4024    5.3614 N.ar    1  UNL1       -0.2763
     18 C           3.5441    9.7224    4.5185 C.ar    1  UNL1        0.0048
     19 C           4.4622   10.6171    5.1081 C.ar    1  UNL1       -0.0270
     20 C           4.1967   11.9896    4.9941 C.ar    1  UNL1        0.0671
     21 C           3.0824   12.4944    4.3421 C.ar    1  UNL1        0.0895
     22 C           2.1568   11.6079    3.7819 C.ar    1  UNL1       -0.0336
     23 C           2.3941   10.2290    3.8889 C.ar    1  UNL1       -0.0504
     24 N           3.0808   13.8647    4.3591 N.ar    1  UNL1       -0.2277
     25 C           4.1771   14.2313    5.0018 C.ar    1  UNL1        0.1394
     26 N           4.8618   13.1104    5.4263 N.ar    1  UNL1       -0.3379
     27 C           4.6169   15.6210    5.2020 C.ar    1  UNL1        0.0210
     28 C           3.8216   16.6644    4.6824 C.ar    1  UNL1       -0.0057
     29 C           4.2226   17.9974    4.7856 C.ar    1  UNL1        0.1619
     30 C           5.4265   18.2857    5.4327 C.ar    1  UNL1        0.1585
     31 C           6.2164   17.2824    5.9763 C.ar    1  UNL1       -0.0159
     32 C           5.8129   15.9498    5.8594 C.ar    1  UNL1       -0.0474
     33 O           5.8620   19.5789    5.5354 O.3     1  UNL1       -0.5033
     34 O           3.5522   19.0890    4.2958 O.3     1  UNL1       -0.4914
     35 C           2.3237   18.8315    3.6238 C.3     1  UNL1        0.0790
     36 H           1.4219   -1.2502   -1.2956 H       1  UNL1        0.0242
     37 H           3.1871   -1.1719   -1.2911 H       1  UNL1        0.0242
     38 H           2.2316    0.1703   -1.9545 H       1  UNL1        0.0242
     39 H           2.2222   -0.7981    0.9365 H       1  UNL1        0.0424
     40 H           1.2681    0.5700    0.3683 H       1  UNL1        0.0424
     41 H           3.1882    2.0106   -1.2888 H       1  UNL1        0.0442
     42 H           4.4412    2.5291   -0.2020 H       1  UNL1        0.0442
     43 H           1.4607    3.1660    0.0391 H       1  UNL1        0.0476
     44 H           2.8200    4.2540   -0.2735 H       1  UNL1        0.0476
     45 H           1.4163    1.9384    2.3115 H       1  UNL1        0.0476
     46 H           2.5373    2.3999    3.5656 H       1  UNL1        0.0476
     47 H           3.3219    0.2945    2.5743 H       1  UNL1        0.0442
     48 H           4.4632    1.5651    2.1993 H       1  UNL1        0.0442
     49 H           3.9497    3.9117    4.0735 H       1  UNL1        0.0657
     50 H           2.4539    8.1107    1.8658 H       1  UNL1        0.0625
     51 H           2.0010    5.9657    0.8179 H       1  UNL1        0.0636
     52 H           4.8545    5.7816    6.0341 H       1  UNL1        0.1889
     53 H           5.3453   10.2539    5.6265 H       1  UNL1        0.0645
     54 H           1.2752   11.9870    3.2776 H       1  UNL1        0.0640
     55 H           1.6446    9.5572    3.4791 H       1  UNL1        0.0625
     56 H           5.7254   13.1097    5.9453 H       1  UNL1        0.1674
     57 H           2.8924   16.3972    4.1856 H       1  UNL1        0.0662
     58 H           7.1462   17.5369    6.4768 H       1  UNL1        0.0655
     59 H           6.4587   15.1870    6.2820 H       1  UNL1        0.0626
     60 H           5.1863   20.1079    5.0675 H       1  UNL1        0.2923
     61 H           1.9433   19.7865    3.2481 H       1  UNL1        0.0660
     62 H           1.5789   18.4229    4.3145 H       1  UNL1        0.0660
     63 H           2.4703   18.1730    2.7614 H       1  UNL1        0.0660
@<TRIPOS>BOND
     1     1     2    1
     2     2     3    1
     3     3     4    1
     4     4     5    1
     5     5     6    1
     6     6     7    1
     7     7     8    1
     8     3     8    1
     9     6     9    1
    10     9    10   ar
    11    10    11   ar
    12    11    12   ar
    13    12    13   ar
    14    13    14   ar
    15     9    14   ar
    16    12    15   ar
    17    15    16   ar
    18    16    17   ar
    19    11    17   ar
    20    15    18    1
    21    18    19   ar
    22    19    20   ar
    23    20    21   ar
    24    21    22   ar
    25    22    23   ar
    26    18    23   ar
    27    21    24   ar
    28    24    25   ar
    29    25    26   ar
    30    20    26   ar
    31    25    27    1
    32    27    28   ar
    33    28    29   ar
    34    29    30   ar
    35    30    31   ar
    36    31    32   ar
    37    27    32   ar
    38    30    33    1
    39    29    34    1
    40    34    35    1
    41     1    36    1
    42     1    37    1
    43     1    38    1
    44     2    39    1
    45     2    40    1
    46     4    41    1
    47     4    42    1
    48     5    43    1
    49     5    44    1
    50     7    45    1
    51     7    46    1
    52     8    47    1
    53     8    48    1
    54    10    49    1
    55    13    50    1
    56    14    51    1
    57    17    52    1
    58    19    53    1
    59    22    54    1
    60    23    55    1
    61    26    56    1
    62    28    57    1
    63    31    58    1
    64    32    59    1
    65    33    60    1
    66    35    61    1
    67    35    62    1
    68    35    63    1
